215
-1467.12744
C     3.987000000     2.550000000    -1.249000000
H     3.376000000     3.448000000    -1.221000000
C     3.794000000     1.452000000    -2.122000000
C     4.546000000     0.279000000    -1.797000000
H     4.191000000    -0.711000000    -2.072000000
C     2.487000000     1.329000000    -2.811000000
O     2.165000000     2.623000000    -3.414000000
H     1.730000000     0.934000000    -2.118000000
O     2.710000000     0.377000000    -3.889000000
C     1.648000000    -0.425000000    -4.217000000
C     1.825000000    -1.735000000    -3.911000000
H     2.686000000    -2.157000000    -3.400000000
C     0.645000000    -2.555000000    -3.904000000
O     0.823000000    -3.767000000    -3.255000000
C    -0.631000000    -2.115000000    -4.372000000
C    -1.822000000    -3.030000000    -4.278000000
H    -2.475000000    -2.707000000    -5.091000000
C    -2.483000000    -2.873000000    -2.929000000
C    -3.462000000    -1.941000000    -2.779000000
H    -3.776000000    -1.281000000    -3.584000000
H    -1.551000000    -4.070000000    -4.470000000
C    -0.753000000    -0.787000000    -4.699000000
H    -1.691000000    -0.406000000    -5.093000000
C     0.418000000     0.058000000    -4.732000000
C     0.307000000     1.442000000    -5.193000000
H    -0.493000000     1.435000000    -5.936000000
H     1.202000000     1.808000000    -5.701000000
C    -0.092000000     2.412000000    -4.129000000
C    -1.454000000     2.675000000    -3.828000000
H    -2.255000000     2.142000000    -4.333000000
C     0.859000000     3.046000000    -3.287000000
C     0.450000000     3.901000000    -2.273000000
H     1.186000000     4.373000000    -1.627000000
C    -0.856000000     4.254000000    -2.083000000
O    -1.201000000     5.049000000    -1.011000000
C    -1.592000000     4.309000000     0.154000000
C    -0.966000000     4.817000000     1.425000000
C    -1.573000000     4.585000000     2.652000000
H    -2.496000000     4.018000000     2.743000000
C     0.269000000     5.532000000     1.335000000
H     0.683000000     5.772000000     0.360000000
O    -3.028000000     4.246000000     0.311000000
H    -1.183000000     3.296000000     0.024000000
C    -1.848000000     3.584000000    -2.861000000
C    -3.350000000     3.804000000    -2.589000000
H    -3.963000000     3.743000000    -3.491000000
H    -3.442000000     4.789000000    -2.127000000
C    -3.712000000     2.835000000    -1.533000000
C    -4.285000000     1.650000000    -1.887000000
H    -4.296000000     1.401000000    -2.945000000
C    -3.653000000     3.093000000    -0.175000000
C    -3.938000000     2.171000000     0.811000000
H    -3.741000000     2.318000000     1.870000000
C    -4.442000000     0.916000000     0.446000000
O    -4.600000000    -0.053000000     1.384000000
C    -3.650000000    -1.187000000     1.412000000
C    -3.251000000    -1.516000000     2.837000000
C    -3.058000000    -0.566000000     3.869000000
H    -3.275000000     0.457000000     3.572000000
C    -3.019000000    -2.858000000     3.260000000
H    -3.207000000    -3.705000000     2.605000000
O    -4.105000000    -2.428000000     0.806000000
H    -2.678000000    -0.849000000     1.023000000
C    -4.624000000     0.711000000    -0.940000000
C    -5.145000000    -0.713000000    -1.305000000
H    -5.897000000    -0.671000000    -2.096000000
H    -5.804000000    -1.115000000    -0.533000000
C    -4.030000000    -1.764000000    -1.527000000
C    -3.668000000    -2.603000000    -0.461000000
C    -2.784000000    -3.592000000    -0.699000000
H    -2.530000000    -4.395000000    -0.012000000
C    -2.113000000    -3.657000000    -1.862000000
O    -0.966000000    -4.494000000    -1.849000000
C     0.242000000    -3.822000000    -1.891000000
H     0.091000000    -2.830000000    -1.441000000
C     1.273000000    -4.450000000    -0.931000000
C     2.589000000    -4.485000000    -1.250000000
H     2.980000000    -4.019000000    -2.151000000
C     0.862000000    -5.274000000     0.167000000
H    -0.166000000    -5.215000000     0.515000000
C     1.793000000    -5.944000000     0.987000000
O     1.353000000    -6.572000000     2.126000000
C     3.130000000    -5.865000000     0.700000000
H     3.866000000    -6.313000000     1.362000000
C     3.514000000    -5.163000000    -0.425000000
O     4.885000000    -5.175000000    -0.761000000
C     5.503000000    -4.193000000    -1.435000000
C     5.736000000    -2.940000000    -0.734000000
H     5.451000000    -2.770000000     0.301000000
C     5.969000000    -4.366000000    -2.750000000
H     5.783000000    -5.260000000    -3.340000000
C     6.663000000    -3.361000000    -3.376000000
H     6.912000000    -3.488000000    -4.427000000
C     6.873000000    -2.173000000    -2.724000000
H     7.331000000    -1.312000000    -3.204000000
C     6.356000000    -1.933000000    -1.437000000
O     6.564000000    -0.729000000    -0.725000000
C     5.714000000     0.328000000    -1.000000000
C     5.961000000     1.467000000    -0.267000000
H     6.845000000     1.545000000     0.361000000
C     5.072000000     2.535000000    -0.383000000
O     5.250000000     3.559000000     0.556000000
C     4.564000000     4.805000000     0.594000000
C     3.628000000     5.169000000     1.575000000
H     3.375000000     4.479000000     2.375000000
C     4.919000000     5.736000000    -0.426000000
H     5.598000000     5.488000000    -1.237000000
C     4.173000000     6.889000000    -0.566000000
H     4.123000000     7.490000000    -1.471000000
C     3.215000000     7.194000000     0.380000000
H     2.704000000     8.152000000     0.323000000
C     2.990000000     6.392000000     1.532000000
O     2.030000000     6.676000000     2.497000000
C     0.877000000     5.931000000     2.518000000
C     0.202000000     5.664000000     3.767000000
H     0.679000000     6.032000000     4.672000000
C    -1.023000000     5.036000000     3.828000000
O    -1.574000000     4.691000000     5.078000000
C    -2.429000000     3.671000000     5.355000000
C    -1.910000000     2.351000000     5.512000000
H    -0.851000000     2.231000000     5.300000000
C    -3.844000000     3.867000000     5.461000000
H    -4.326000000     4.840000000     5.407000000
C    -4.635000000     2.806000000     5.846000000
H    -5.709000000     2.950000000     5.939000000
C    -4.080000000     1.500000000     6.039000000
H    -4.757000000     0.690000000     6.294000000
C    -2.724000000     1.328000000     5.919000000
O    -2.104000000     0.106000000     5.996000000
C    -2.360000000    -0.889000000     5.050000000
C    -2.116000000    -2.205000000     5.403000000
H    -1.601000000    -2.466000000     6.324000000
C    -2.385000000    -3.202000000     4.486000000
O    -2.073000000    -4.527000000     4.802000000
C    -1.707000000    -5.570000000     3.957000000
C    -2.590000000    -6.538000000     3.523000000
H    -3.567000000    -6.630000000     3.990000000
C    -2.139000000    -7.502000000     2.564000000
H    -2.851000000    -8.222000000     2.169000000
C    -0.808000000    -7.579000000     2.164000000
H    -0.442000000    -8.323000000     1.461000000
C     0.065000000    -6.606000000     2.590000000
C    -0.404000000    -5.613000000     3.452000000
H     0.355000000    -4.981000000     3.907000000
C     1.020000000     1.768000000     2.216000000
H     0.620000000     2.533000000     2.877000000
C     0.194000000     1.134000000     1.339000000
H    -0.851000000     1.419000000     1.244000000
C     0.605000000     0.187000000     0.458000000
H    -0.021000000    -0.316000000    -0.256000000
C     1.940000000    -0.261000000     0.515000000
H     2.293000000    -1.069000000    -0.121000000
C     2.815000000     0.386000000     1.419000000
H     3.864000000     0.109000000     1.479000000
C     2.345000000     1.432000000     2.258000000
C     3.314000000     2.041000000     3.284000000
O     4.472000000     1.660000000     3.393000000
O     2.902000000     2.964000000     4.070000000
O     0.967000000    -2.282000000     4.051000000
H     0.494000000    -1.544000000     3.667000000
H     0.668000000    -2.311000000     4.960000000
O     4.565000000     1.156000000     8.261000000
H     4.577000000     1.154000000     7.304000000
H     5.340000000     1.662000000     8.509000000
O     6.592000000     6.156000000     2.688000000
H     5.734000000     6.224000000     2.269000000
H     6.499000000     5.432000000     3.307000000
O     7.430000000    -2.527000000     2.042000000
H     7.041000000    -1.652000000     2.033000000
H     8.342000000    -2.382000000     2.293000000
O     1.487000000     0.657000000     5.470000000
H     2.414000000     0.572000000     5.246000000
H     1.322000000     1.600000000     5.451000000
O     3.406000000    -1.687000000     7.065000000
H     3.506000000    -0.767000000     7.308000000
H     4.172000000    -2.120000000     7.443000000
O     1.188000000     3.206000000     6.126000000
H     1.838000000     3.333000000     5.436000000
H     0.951000000     4.093000000     6.398000000
O     0.185000000     0.140000000     8.081000000
H     0.177000000    -0.770000000     7.784000000
H     0.046000000     0.653000000     7.285000000
O     3.840000000     5.504000000     5.693000000
H     4.516000000     5.253000000     6.322000000
H     3.592000000     4.683000000     5.267000000
O     2.176000000     3.187000000     8.729000000
H     1.624000000     3.065000000     7.957000000
H     2.897000000     2.570000000     8.608000000
O     5.213000000     0.640000000     5.794000000
H     6.054000000     0.283000000     5.511000000
H     4.848000000     1.045000000     5.007000000
O     7.822000000     1.936000000     5.561000000
H     8.045000000     1.865000000     4.633000000
H     8.092000000     1.098000000     5.937000000
O     7.883000000     2.397000000     2.712000000
H     8.260000000     2.725000000     1.896000000
H     7.082000000     2.908000000     2.828000000
O     6.397000000     4.013000000     6.724000000
H     6.543000000     3.788000000     7.643000000
H     6.774000000     3.282000000     6.235000000
O     3.630000000    -2.174000000     3.862000000
H     2.695000000    -2.007000000     3.748000000
H     3.723000000    -2.403000000     4.786000000
O     6.683000000    -0.011000000     2.637000000
H     5.730000000     0.078000000     2.667000000
H     7.011000000     0.825000000     2.969000000
O     5.538000000     7.982000000     5.289000000
H     6.439000000     7.803000000     5.020000000
H     5.057000000     7.188000000     5.058000000
O     5.844000000     3.984000000     3.963000000
H     5.299000000     3.228000000     3.742000000
H     5.847000000     4.005000000     4.920000000
O     5.609000000    -3.997000000     3.604000000
H     5.976000000    -3.688000000     2.776000000
H     4.945000000    -3.346000000     3.830000000
