215
-1452.31308
C     4.046000000     3.161000000    -1.806000000
H     3.517000000     4.104000000    -1.700000000
C     3.516000000     2.065000000    -2.538000000
C     4.232000000     0.876000000    -2.638000000
H     3.808000000     0.065000000    -3.225000000
C     2.110000000     2.146000000    -3.062000000
O     1.659000000     3.475000000    -3.151000000
H     1.511000000     1.576000000    -2.336000000
O     1.963000000     1.469000000    -4.288000000
C     0.873000000     0.618000000    -4.503000000
C     1.074000000    -0.768000000    -4.276000000
H     2.056000000    -1.209000000    -4.121000000
C    -0.052000000    -1.606000000    -4.369000000
O     0.219000000    -2.881000000    -4.093000000
C    -1.344000000    -1.027000000    -4.564000000
C    -2.538000000    -1.873000000    -4.596000000
H    -3.333000000    -1.443000000    -5.209000000
C    -3.049000000    -2.116000000    -3.174000000
C    -4.044000000    -1.325000000    -2.733000000
H    -4.493000000    -0.621000000    -3.428000000
H    -2.271000000    -2.794000000    -5.117000000
C    -1.595000000     0.303000000    -4.734000000
H    -2.542000000     0.756000000    -5.015000000
C    -0.432000000     1.182000000    -4.732000000
C    -0.600000000     2.717000000    -4.800000000
H    -1.489000000     3.040000000    -5.347000000
H     0.251000000     3.126000000    -5.348000000
C    -0.736000000     3.288000000    -3.386000000
C    -2.018000000     3.455000000    -2.804000000
H    -2.913000000     3.105000000    -3.311000000
C     0.368000000     3.714000000    -2.678000000
C     0.209000000     4.430000000    -1.525000000
H     1.119000000     4.770000000    -1.038000000
C    -1.050000000     4.663000000    -0.951000000
O    -1.224000000     5.039000000     0.331000000
C    -1.395000000     3.929000000     1.304000000
C    -0.368000000     3.802000000     2.439000000
C    -0.860000000     3.318000000     3.654000000
H    -1.890000000     3.025000000     3.839000000
C     0.911000000     4.268000000     2.284000000
H     1.213000000     4.532000000     1.273000000
O    -2.715000000     3.869000000     1.792000000
H    -1.270000000     3.005000000     0.721000000
C    -2.135000000     4.098000000    -1.591000000
C    -3.564000000     4.293000000    -1.036000000
H    -4.272000000     4.469000000    -1.849000000
H    -3.577000000     5.188000000    -0.411000000
C    -3.987000000     3.131000000    -0.207000000
C    -4.553000000     2.019000000    -0.805000000
H    -4.868000000     2.077000000    -1.844000000
C    -3.615000000     3.044000000     1.153000000
C    -3.966000000     1.941000000     1.879000000
H    -3.813000000     1.837000000     2.950000000
C    -4.503000000     0.803000000     1.260000000
O    -4.636000000    -0.451000000     1.875000000
C    -3.703000000    -1.557000000     1.640000000
C    -3.158000000    -2.163000000     2.908000000
C    -3.384000000    -1.643000000     4.132000000
H    -3.767000000    -0.626000000     4.168000000
C    -2.368000000    -3.292000000     2.909000000
H    -2.161000000    -3.847000000     1.997000000
O    -4.243000000    -2.530000000     0.728000000
H    -2.852000000    -1.061000000     1.150000000
C    -4.829000000     0.823000000    -0.100000000
C    -5.469000000    -0.394000000    -0.844000000
H    -6.078000000     0.025000000    -1.648000000
H    -6.141000000    -0.891000000    -0.142000000
C    -4.396000000    -1.386000000    -1.384000000
C    -3.871000000    -2.377000000    -0.575000000
C    -2.904000000    -3.245000000    -1.053000000
H    -2.477000000    -3.955000000    -0.350000000
C    -2.467000000    -3.087000000    -2.330000000
O    -1.433000000    -3.911000000    -2.758000000
C    -0.132000000    -3.340000000    -2.798000000
H    -0.057000000    -2.422000000    -2.196000000
C     0.917000000    -4.308000000    -2.276000000
C     2.228000000    -4.156000000    -2.668000000
H     2.479000000    -3.485000000    -3.486000000
C     0.670000000    -5.175000000    -1.246000000
H    -0.333000000    -5.274000000    -0.840000000
C     1.687000000    -5.803000000    -0.526000000
O     1.487000000    -6.594000000     0.579000000
C     3.000000000    -5.582000000    -0.887000000
H     3.818000000    -6.014000000    -0.315000000
C     3.274000000    -4.865000000    -1.993000000
O     4.616000000    -4.691000000    -2.316000000
C     5.142000000    -3.625000000    -2.984000000
C     5.359000000    -2.433000000    -2.246000000
H     4.939000000    -2.386000000    -1.245000000
C     5.639000000    -3.744000000    -4.240000000
H     5.374000000    -4.627000000    -4.815000000
C     6.337000000    -2.696000000    -4.846000000
H     6.783000000    -2.954000000    -5.803000000
C     6.486000000    -1.449000000    -4.203000000
H     7.053000000    -0.678000000    -4.717000000
C     6.049000000    -1.352000000    -2.908000000
O     6.317000000    -0.264000000    -2.147000000
C     5.492000000     0.822000000    -2.054000000
C     6.013000000     1.877000000    -1.297000000
H     7.015000000     1.841000000    -0.875000000
C     5.284000000     3.043000000    -1.182000000
O     5.939000000     4.129000000    -0.570000000
C     5.243000000     4.814000000     0.387000000
C     4.422000000     4.223000000     1.291000000
H     4.405000000     3.145000000     1.424000000
C     5.391000000     6.204000000     0.401000000
H     6.109000000     6.717000000    -0.234000000
C     4.703000000     6.993000000     1.286000000
H     4.853000000     8.069000000     1.239000000
C     3.914000000     6.381000000     2.262000000
H     3.371000000     6.970000000     2.997000000
C     3.760000000     4.977000000     2.241000000
O     3.122000000     4.456000000     3.319000000
C     1.760000000     4.064000000     3.398000000
C     1.361000000     3.456000000     4.577000000
H     2.079000000     3.421000000     5.393000000
C     0.000000000     3.177000000     4.769000000
O    -0.300000000     2.536000000     5.931000000
C    -1.489000000     1.819000000     6.259000000
C    -1.599000000     0.448000000     6.146000000
H    -0.742000000    -0.069000000     5.720000000
C    -2.497000000     2.552000000     6.767000000
H    -2.361000000     3.622000000     6.903000000
C    -3.592000000     1.958000000     7.282000000
H    -4.428000000     2.537000000     7.665000000
C    -3.767000000     0.558000000     7.190000000
H    -4.743000000     0.129000000     7.402000000
C    -2.764000000    -0.173000000     6.633000000
O    -3.063000000    -1.491000000     6.496000000
C    -2.864000000    -2.160000000     5.300000000
C    -2.315000000    -3.417000000     5.294000000
H    -1.886000000    -3.749000000     6.236000000
C    -1.993000000    -3.940000000     4.067000000
O    -1.249000000    -5.085000000     4.144000000
C    -0.975000000    -5.889000000     3.075000000
C    -1.888000000    -6.838000000     2.703000000
H    -2.770000000    -6.807000000     3.339000000
C    -1.704000000    -7.747000000     1.713000000
H    -2.386000000    -8.566000000     1.502000000
C    -0.512000000    -7.689000000     0.966000000
H    -0.342000000    -8.430000000     0.189000000
C     0.443000000    -6.705000000     1.374000000
C     0.235000000    -5.817000000     2.416000000
H     0.873000000    -5.011000000     2.770000000
C     1.212000000     0.695000000     2.795000000
H     0.985000000     0.794000000     3.854000000
C     0.217000000     0.470000000     1.805000000
H    -0.858000000     0.535000000     1.954000000
C     0.531000000     0.271000000     0.461000000
H    -0.221000000    -0.029000000    -0.255000000
C     1.857000000     0.198000000     0.105000000
H     2.068000000     0.062000000    -0.952000000
C     2.842000000     0.401000000     1.078000000
H     3.880000000     0.356000000     0.758000000
C     2.522000000     0.710000000     2.444000000
C     3.620000000     1.144000000     3.454000000
O     4.787000000     1.104000000     3.084000000
O     3.343000000     1.307000000     4.611000000
O     2.302000000    -2.583000000     0.871000000
H     2.462000000    -1.668000000     0.637000000
H     1.381000000    -2.607000000     1.128000000
O     7.301000000    -1.500000000     7.024000000
H     6.644000000    -1.488000000     6.328000000
H     8.131000000    -1.636000000     6.568000000
O     0.603000000    -1.365000000     8.468000000
H     0.159000000    -0.832000000     9.127000000
H     0.848000000    -0.744000000     7.783000000
O     7.469000000     0.560000000     4.062000000
H     7.390000000     1.364000000     3.549000000
H     6.566000000     0.275000000     4.202000000
O     5.995000000     5.346000000     4.939000000
H     5.119000000     5.726000000     4.870000000
H     5.848000000     4.467000000     5.287000000
O     2.712000000    -2.128000000     5.213000000
H     2.498000000    -2.699000000     5.951000000
H     2.134000000    -1.373000000     5.319000000
O     8.582000000     4.839000000     3.668000000
H     7.946000000     5.362000000     4.157000000
H     8.052000000     4.326000000     3.059000000
O     4.386000000    -2.054000000     8.214000000
H     3.725000000    -1.540000000     8.678000000
H     4.750000000    -1.449000000     7.567000000
O     3.770000000     4.803000000     7.449000000
H     2.891000000     5.160000000     7.320000000
H     4.073000000     5.204000000     8.264000000
O     8.133000000    -3.293000000     3.129000000
H     7.745000000    -2.498000000     2.763000000
H     8.914000000    -3.445000000     2.596000000
O     5.109000000    -0.797000000     5.444000000
H     4.415000000    -1.434000000     5.273000000
H     4.796000000     0.013000000     5.040000000
O     1.718000000     0.400000000     6.393000000
H     1.140000000     1.129000000     6.620000000
H     2.402000000     0.796000000     5.853000000
O     8.463000000     1.688000000     1.374000000
H     9.322000000     2.090000000     1.506000000
H     7.879000000     2.176000000     1.954000000
O     8.042000000    -0.671000000     0.125000000
H     8.323000000    -0.006000000     0.754000000
H     7.087000000    -0.675000000     0.192000000
O     5.896000000    -1.379000000     1.805000000
H     5.454000000    -0.657000000     2.252000000
H     5.447000000    -2.165000000     2.117000000
O     4.312000000    -3.466000000     2.558000000
H     3.543000000    -3.261000000     2.026000000
H     3.953000000    -3.845000000     3.361000000
O     6.554000000     2.921000000     3.013000000
H     5.801000000     2.332000000     3.059000000
H     6.404000000     3.558000000     3.711000000
O     6.698000000     1.955000000     7.455000000
H     6.839000000     1.052000000     7.173000000
H     6.179000000     2.348000000     6.752000000
O     4.995000000     3.120000000     5.771000000
H     4.290000000     2.641000000     5.336000000
H     4.556000000     3.621000000     6.459000000
