215
-1476.80592
C     3.720000000     3.022000000    -2.703000000
H     3.076000000     3.851000000    -2.421000000
C     3.246000000     1.881000000    -3.321000000
C     4.120000000     0.840000000    -3.506000000
H     3.766000000    -0.127000000    -3.855000000
C     1.751000000     1.746000000    -3.563000000
O     1.061000000     2.979000000    -3.682000000
H     1.253000000     1.201000000    -2.747000000
O     1.566000000     0.920000000    -4.726000000
C     0.656000000    -0.107000000    -4.607000000
C     0.898000000    -1.390000000    -4.274000000
H     1.935000000    -1.679000000    -4.129000000
C    -0.146000000    -2.295000000    -3.997000000
O     0.172000000    -3.519000000    -3.431000000
C    -1.472000000    -1.984000000    -4.190000000
C    -2.661000000    -2.953000000    -3.939000000
H    -3.420000000    -2.565000000    -4.621000000
C    -3.128000000    -2.946000000    -2.452000000
C    -4.178000000    -2.083000000    -1.983000000
H    -4.647000000    -1.452000000    -2.733000000
H    -2.479000000    -3.963000000    -4.314000000
C    -1.726000000    -0.651000000    -4.430000000
H    -2.758000000    -0.416000000    -4.681000000
C    -0.735000000     0.269000000    -4.711000000
C    -1.159000000     1.696000000    -5.068000000
H    -2.107000000     1.651000000    -5.608000000
H    -0.437000000     2.094000000    -5.785000000
C    -1.332000000     2.632000000    -3.823000000
C    -2.602000000     2.942000000    -3.304000000
H    -3.406000000     2.421000000    -3.816000000
C    -0.197000000     3.212000000    -3.249000000
C    -0.360000000     4.130000000    -2.125000000
H     0.526000000     4.666000000    -1.794000000
C    -1.630000000     4.324000000    -1.596000000
O    -1.726000000     4.917000000    -0.368000000
C    -1.707000000     4.094000000     0.778000000
C    -0.780000000     4.531000000     1.878000000
C    -1.129000000     4.576000000     3.267000000
H    -2.175000000     4.407000000     3.512000000
C     0.509000000     4.860000000     1.533000000
H     0.826000000     4.873000000     0.494000000
O    -3.001000000     3.962000000     1.313000000
H    -1.344000000     3.118000000     0.422000000
C    -2.756000000     3.693000000    -2.143000000
C    -4.131000000     3.783000000    -1.410000000
H    -4.930000000     3.607000000    -2.134000000
H    -4.286000000     4.793000000    -1.024000000
C    -4.321000000     2.727000000    -0.324000000
C    -4.801000000     1.483000000    -0.719000000
H    -5.113000000     1.346000000    -1.752000000
C    -3.689000000     2.817000000     0.909000000
C    -3.731000000     1.773000000     1.860000000
H    -3.228000000     1.950000000     2.807000000
C    -4.285000000     0.569000000     1.451000000
O    -4.088000000    -0.482000000     2.361000000
C    -3.151000000    -1.489000000     2.041000000
C    -2.221000000    -1.841000000     3.242000000
C    -1.844000000    -0.827000000     4.099000000
H    -2.134000000     0.202000000     3.902000000
C    -1.777000000    -3.093000000     3.533000000
H    -1.822000000    -3.877000000     2.781000000
O    -3.852000000    -2.634000000     1.542000000
H    -2.413000000    -1.157000000     1.296000000
C    -4.907000000     0.413000000     0.231000000
C    -5.503000000    -0.987000000    -0.185000000
H    -6.320000000    -0.885000000    -0.902000000
H    -5.985000000    -1.464000000     0.671000000
C    -4.443000000    -1.979000000    -0.664000000
C    -3.815000000    -2.875000000     0.195000000
C    -2.870000000    -3.809000000    -0.206000000
H    -2.203000000    -4.370000000     0.443000000
C    -2.458000000    -3.811000000    -1.529000000
O    -1.369000000    -4.537000000    -1.961000000
C    -0.174000000    -3.726000000    -2.043000000
H    -0.353000000    -2.742000000    -1.585000000
C     0.970000000    -4.416000000    -1.296000000
C     2.244000000    -3.908000000    -1.421000000
H     2.462000000    -3.062000000    -2.067000000
C     0.723000000    -5.500000000    -0.421000000
H    -0.247000000    -5.968000000    -0.268000000
C     1.805000000    -5.942000000     0.424000000
O     1.584000000    -6.977000000     1.253000000
C     3.094000000    -5.429000000     0.254000000
H     3.991000000    -5.722000000     0.794000000
C     3.308000000    -4.436000000    -0.694000000
O     4.534000000    -3.991000000    -0.915000000
C     4.897000000    -3.326000000    -2.052000000
C     5.340000000    -1.990000000    -1.978000000
H     5.415000000    -1.335000000    -1.113000000
C     5.142000000    -4.093000000    -3.195000000
H     4.818000000    -5.123000000    -3.069000000
C     5.582000000    -3.468000000    -4.326000000
H     5.700000000    -4.053000000    -5.235000000
C     5.893000000    -2.152000000    -4.297000000
H     6.273000000    -1.720000000    -5.219000000
C     5.845000000    -1.429000000    -3.156000000
O     6.299000000    -0.125000000    -3.191000000
C     5.441000000     0.926000000    -3.138000000
C     5.946000000     2.038000000    -2.529000000
H     6.971000000     1.954000000    -2.176000000
C     5.096000000     3.126000000    -2.349000000
O     5.562000000     4.170000000    -1.612000000
C     4.747000000     5.087000000    -0.932000000
C     4.200000000     4.694000000     0.324000000
H     4.630000000     3.863000000     0.876000000
C     4.433000000     6.219000000    -1.543000000
H     4.888000000     6.519000000    -2.483000000
C     3.494000000     7.092000000    -0.953000000
H     3.070000000     7.945000000    -1.475000000
C     2.846000000     6.715000000     0.223000000
H     2.013000000     7.296000000     0.612000000
C     3.228000000     5.527000000     0.867000000
O     2.802000000     5.284000000     2.124000000
C     1.488000000     5.161000000     2.526000000
C     1.148000000     5.183000000     3.868000000
H     1.884000000     5.301000000     4.659000000
C    -0.196000000     4.912000000     4.207000000
O    -0.510000000     4.790000000     5.608000000
C    -1.155000000     3.654000000     6.071000000
C    -0.607000000     2.349000000     5.733000000
H     0.232000000     2.194000000     5.060000000
C    -2.228000000     3.672000000     6.904000000
H    -2.548000000     4.644000000     7.270000000
C    -2.868000000     2.530000000     7.439000000
H    -3.638000000     2.585000000     8.204000000
C    -2.390000000     1.278000000     6.989000000
H    -2.819000000     0.362000000     7.386000000
C    -1.244000000     1.162000000     6.154000000
O    -0.541000000    -0.012000000     6.016000000
C    -0.951000000    -1.013000000     5.148000000
C    -0.490000000    -2.285000000     5.387000000
H     0.145000000    -2.447000000     6.255000000
C    -0.866000000    -3.314000000     4.549000000
O    -0.375000000    -4.625000000     4.832000000
C    -0.442000000    -5.708000000     3.999000000
C    -1.267000000    -6.820000000     4.199000000
H    -2.038000000    -6.797000000     4.965000000
C    -1.032000000    -7.958000000     3.492000000
H    -1.628000000    -8.853000000     3.654000000
C    -0.114000000    -8.032000000     2.435000000
H    -0.003000000    -8.954000000     1.871000000
C     0.616000000    -6.865000000     2.220000000
C     0.500000000    -5.724000000     2.985000000
H     1.186000000    -4.896000000     2.830000000
C     1.780000000     1.289000000     1.365000000
H     1.946000000     1.999000000     2.171000000
C     0.493000000     1.092000000     0.887000000
H    -0.276000000     1.651000000     1.415000000
C     0.209000000     0.361000000    -0.190000000
H    -0.870000000     0.181000000    -0.445000000
C     1.187000000    -0.427000000    -0.770000000
H     1.118000000    -1.119000000    -1.605000000
C     2.484000000    -0.376000000    -0.159000000
H     3.274000000    -0.977000000    -0.602000000
C     2.826000000     0.516000000     0.840000000
C     4.240000000     0.722000000     1.259000000
O     5.122000000    -0.126000000     1.041000000
O     4.513000000     1.652000000     2.034000000
O     6.019000000    -0.321000000     6.974000000
H     6.884000000    -0.184000000     6.588000000
H     5.978000000    -1.263000000     7.142000000
O     5.591000000    -2.794000000     1.454000000
H     5.523000000    -1.839000000     1.464000000
H     4.706000000    -3.100000000     1.648000000
O     9.382000000     3.195000000    -0.127000000
H     9.753000000     3.217000000     0.756000000
H     8.435000000     3.172000000     0.012000000
O     7.010000000     0.088000000     3.407000000
H     6.444000000     0.265000000     2.656000000
H     6.854000000     0.821000000     4.002000000
O     7.054000000    -2.303000000     4.546000000
H     6.606000000    -3.031000000     4.113000000
H     6.790000000    -1.529000000     4.049000000
O     7.795000000    -0.021000000    -0.181000000
H     6.844000000    -0.002000000    -0.078000000
H     7.997000000    -0.937000000    -0.371000000
O     7.546000000    -4.515000000     0.852000000
H     7.736000000    -4.948000000     1.684000000
H     7.088000000    -3.712000000     1.100000000
O     4.762000000     3.854000000     3.571000000
H     3.999000000     4.413000000     3.424000000
H     4.593000000     3.075000000     3.040000000
O     3.441000000    -3.326000000     4.593000000
H     2.769000000    -3.819000000     5.063000000
H     3.141000000    -2.418000000     4.629000000
O     9.735000000     0.235000000     3.348000000
H     8.885000000    -0.189000000     3.468000000
H     9.651000000     1.072000000     3.805000000
O     3.024000000    -0.402000000     4.364000000
H     2.939000000    -0.082000000     3.466000000
H     3.343000000     0.354000000     4.858000000
O     7.268000000     4.873000000     2.106000000
H     7.379000000     4.002000000     1.726000000
H     6.570000000     4.765000000     2.753000000
O     9.066000000    -0.415000000    -3.109000000
H     9.049000000    -1.248000000    -2.637000000
H     8.256000000     0.024000000    -2.848000000
O     6.881000000     2.464000000     4.953000000
H     6.819000000     2.775000000     5.856000000
H     6.161000000     2.900000000     4.499000000
O     7.038000000     2.416000000     1.152000000
H     6.136000000     2.143000000     1.324000000
H     7.527000000     1.596000000     1.081000000
O     5.444000000    -5.128000000     4.214000000
H     4.792000000    -4.449000000     4.387000000
H     4.935000000    -5.935000000     4.134000000
O     4.305000000     1.641000000     6.051000000
H     4.731000000     2.491000000     6.163000000
H     4.909000000     1.017000000     6.454000000
O     8.540000000    -2.712000000    -1.479000000
H     8.140000000    -3.234000000    -0.783000000
H     8.835000000    -3.356000000    -2.123000000
O    10.618000000     0.696000000     0.826000000
H     9.889000000     1.153000000     0.405000000
H    10.422000000     0.744000000     1.762000000
