215
-1453.52651
C    -3.758000000    -2.408000000    -3.208000000
H    -4.039000000    -1.588000000    -3.865000000
C    -3.838000000    -2.231000000    -1.839000000
C    -3.343000000    -3.275000000    -1.030000000
H    -3.273000000    -3.043000000     0.030000000
C    -3.903000000    -0.873000000    -1.185000000
O    -4.379000000     0.163000000    -2.075000000
H    -2.877000000    -0.611000000    -0.889000000
O    -4.769000000    -0.787000000    -0.002000000
C    -4.345000000    -0.073000000     1.062000000
C    -3.779000000    -0.836000000     2.091000000
H    -3.650000000    -1.907000000     1.953000000
C    -3.223000000    -0.172000000     3.196000000
O    -2.529000000    -0.931000000     4.036000000
C    -3.297000000     1.211000000     3.246000000
C    -2.763000000     2.023000000     4.443000000
H    -3.407000000     2.901000000     4.526000000
C    -1.323000000     2.383000000     4.120000000
C    -0.988000000     3.573000000     3.473000000
H    -1.701000000     4.350000000     3.206000000
H    -2.897000000     1.429000000     5.350000000
C    -3.964000000     1.960000000     2.279000000
H    -4.058000000     3.040000000     2.358000000
C    -4.455000000     1.343000000     1.112000000
C    -5.118000000     2.153000000    -0.029000000
H    -5.459000000     3.163000000     0.209000000
H    -6.007000000     1.583000000    -0.310000000
C    -4.147000000     2.368000000    -1.140000000
C    -3.402000000     3.556000000    -1.168000000
H    -3.622000000     4.365000000    -0.477000000
C    -3.805000000     1.405000000    -2.106000000
C    -2.905000000     1.668000000    -3.109000000
H    -2.635000000     0.897000000    -3.826000000
C    -2.205000000     2.846000000    -3.132000000
O    -1.189000000     2.976000000    -4.085000000
C     0.153000000     2.632000000    -3.597000000
C     0.803000000     1.799000000    -4.675000000
C     2.196000000     1.611000000    -4.718000000
H     2.896000000     2.203000000    -4.135000000
C     0.040000000     0.959000000    -5.486000000
H    -1.036000000     1.030000000    -5.345000000
O     0.901000000     3.797000000    -3.194000000
H     0.039000000     2.027000000    -2.685000000
C    -2.408000000     3.856000000    -2.149000000
C    -1.554000000     5.135000000    -2.206000000
H    -2.116000000     5.920000000    -1.695000000
H    -1.319000000     5.410000000    -3.236000000
C    -0.233000000     4.921000000    -1.341000000
C    -0.225000000     5.194000000     0.023000000
H    -1.159000000     5.600000000     0.402000000
C     0.890000000     4.285000000    -1.923000000
C     1.986000000     3.914000000    -1.171000000
H     2.789000000     3.399000000    -1.694000000
C     1.962000000     4.146000000     0.194000000
O     3.002000000     3.703000000     0.882000000
C     2.812000000     2.544000000     1.704000000
C     3.969000000     1.441000000     1.513000000
C     4.197000000     0.856000000     0.277000000
H     3.677000000     1.436000000    -0.482000000
C     4.630000000     0.846000000     2.597000000
H     4.401000000     1.268000000     3.573000000
O     2.628000000     2.878000000     3.061000000
H     1.848000000     2.170000000     1.329000000
C     0.820000000     4.781000000     0.837000000
C     0.842000000     4.952000000     2.311000000
H     0.129000000     5.751000000     2.526000000
H     1.801000000     5.207000000     2.768000000
C     0.382000000     3.805000000     3.151000000
C     1.309000000     2.809000000     3.477000000
C     0.983000000     1.734000000     4.221000000
H     1.799000000     1.047000000     4.431000000
C    -0.323000000     1.448000000     4.526000000
O    -0.587000000     0.196000000     5.034000000
C    -1.060000000    -0.808000000     4.109000000
H    -0.804000000    -0.403000000     3.118000000
C    -0.319000000    -2.156000000     4.347000000
C    -0.854000000    -3.339000000     3.890000000
H    -1.770000000    -3.318000000     3.304000000
C     0.886000000    -2.148000000     5.073000000
H     1.322000000    -1.249000000     5.499000000
C     1.533000000    -3.341000000     5.349000000
O     2.789000000    -3.351000000     5.931000000
C     0.985000000    -4.538000000     4.901000000
H     1.529000000    -5.453000000     5.123000000
C    -0.145000000    -4.588000000     4.077000000
O    -0.625000000    -5.807000000     3.562000000
C    -1.689000000    -5.879000000     2.686000000
C    -1.450000000    -5.679000000     1.359000000
H    -0.484000000    -5.667000000     0.860000000
C    -3.002000000    -6.093000000     3.214000000
H    -3.090000000    -6.346000000     4.268000000
C    -4.102000000    -6.102000000     2.351000000
H    -5.082000000    -6.277000000     2.787000000
C    -3.892000000    -5.821000000     1.003000000
H    -4.750000000    -5.876000000     0.338000000
C    -2.551000000    -5.637000000     0.573000000
O    -2.345000000    -5.570000000    -0.759000000
C    -2.930000000    -4.552000000    -1.503000000
C    -2.834000000    -4.659000000    -2.891000000
H    -2.428000000    -5.575000000    -3.313000000
C    -3.338000000    -3.636000000    -3.755000000
O    -3.135000000    -3.810000000    -5.089000000
C    -2.909000000    -2.782000000    -5.986000000
C    -1.606000000    -2.289000000    -6.166000000
H    -0.782000000    -2.643000000    -5.552000000
C    -4.037000000    -2.239000000    -6.688000000
H    -5.041000000    -2.648000000    -6.608000000
C    -3.800000000    -1.029000000    -7.418000000
H    -4.594000000    -0.578000000    -8.008000000
C    -2.514000000    -0.514000000    -7.596000000
H    -2.294000000     0.330000000    -8.245000000
C    -1.424000000    -1.150000000    -6.959000000
O    -0.172000000    -0.629000000    -7.229000000
C     0.622000000     0.063000000    -6.337000000
C     1.987000000    -0.160000000    -6.385000000
H     2.376000000    -1.001000000    -6.954000000
C     2.756000000     0.579000000    -5.522000000
O     4.125000000     0.466000000    -5.579000000
C     4.930000000     0.665000000    -4.429000000
C     4.750000000    -0.089000000    -3.309000000
H     4.167000000    -1.001000000    -3.410000000
C     5.727000000     1.826000000    -4.357000000
H     5.711000000     2.462000000    -5.239000000
C     6.544000000     2.088000000    -3.307000000
H     7.224000000     2.928000000    -3.426000000
C     6.472000000     1.276000000    -2.186000000
H     7.059000000     1.504000000    -1.300000000
C     5.527000000     0.201000000    -2.190000000
O     5.440000000    -0.650000000    -1.142000000
C     5.001000000    -0.258000000     0.063000000
C     5.677000000    -0.874000000     1.147000000
H     6.441000000    -1.619000000     0.939000000
C     5.367000000    -0.348000000     2.393000000
O     5.987000000    -0.938000000     3.426000000
C     5.258000000    -1.108000000     4.654000000
C     5.544000000    -0.375000000     5.784000000
H     6.303000000     0.396000000     5.677000000
C     4.971000000    -0.702000000     7.044000000
H     5.198000000    -0.060000000     7.891000000
C     4.062000000    -1.723000000     7.141000000
H     3.725000000    -1.972000000     8.144000000
C     3.635000000    -2.304000000     5.935000000
C     4.250000000    -2.020000000     4.697000000
H     4.160000000    -2.713000000     3.865000000
C     1.975000000    -1.275000000    -0.106000000
H     2.680000000    -1.637000000     0.638000000
C     1.087000000    -0.312000000     0.385000000
H     1.189000000     0.040000000     1.408000000
C     0.053000000     0.130000000    -0.448000000
H    -0.564000000     0.866000000    -0.016000000
C    -0.094000000    -0.307000000    -1.750000000
H    -0.992000000    -0.080000000    -2.319000000
C     0.846000000    -1.268000000    -2.250000000
H     0.851000000    -1.574000000    -3.293000000
C     1.919000000    -1.708000000    -1.443000000
C     2.783000000    -2.728000000    -2.046000000
O     2.663000000    -3.106000000    -3.214000000
O     3.424000000    -3.425000000    -1.280000000
O     3.643000000    -5.578000000    -3.383000000
H     3.318000000    -4.679000000    -3.435000000
H     3.255000000    -5.927000000    -2.581000000
O    -0.404000000    -5.772000000    -5.135000000
H     0.140000000    -5.670000000    -4.354000000
H    -1.081000000    -6.397000000    -4.875000000
O     5.638000000    -4.445000000    -0.349000000
H     5.334000000    -4.900000000     0.436000000
H     4.867000000    -3.976000000    -0.668000000
O     2.745000000    -3.221000000    -6.007000000
H     2.513000000    -2.941000000    -5.122000000
H     3.654000000    -2.943000000    -6.116000000
O     4.045000000    -3.706000000    -8.855000000
H     3.492000000    -3.516000000    -8.098000000
H     4.940000000    -3.622000000    -8.525000000
O     9.150000000    -3.762000000    -5.159000000
H     8.892000000    -4.559000000    -5.623000000
H     8.325000000    -3.308000000    -4.987000000
O     6.084000000    -5.029000000    -4.560000000
H     5.334000000    -5.441000000    -4.132000000
H     5.744000000    -4.197000000    -4.890000000
O     0.365000000    -5.253000000    -2.396000000
H     1.062000000    -4.601000000    -2.470000000
H    -0.161000000    -4.957000000    -1.654000000
O     7.518000000    -5.667000000    -2.192000000
H     7.289000000    -5.173000000    -2.979000000
H     6.923000000    -5.336000000    -1.519000000
O     5.481000000    -0.600000000    -7.716000000
H     5.525000000    -0.353000000    -8.640000000
H     5.355000000     0.228000000    -7.252000000
O     3.133000000    -6.863000000    -5.869000000
H     4.073000000    -6.819000000    -6.048000000
H     3.037000000    -6.483000000    -4.996000000
O     5.517000000    -2.560000000    -6.090000000
H     5.618000000    -1.817000000    -6.685000000
H     5.749000000    -2.210000000    -5.230000000
O     5.199000000    -6.381000000     1.581000000
H     5.204000000    -7.306000000     1.828000000
H     5.172000000    -5.911000000     2.415000000
O     6.529000000    -7.938000000    -1.000000000
H     6.201000000    -7.129000000    -0.608000000
H     7.177000000    -7.648000000    -1.642000000
O    -1.353000000    -8.973000000    -2.728000000
H    -0.944000000    -9.600000000    -2.130000000
H    -0.742000000    -8.237000000    -2.759000000
O     2.634000000    -5.275000000     0.456000000
H     3.436000000    -5.613000000     0.856000000
H     2.934000000    -4.589000000    -0.140000000
O     6.974000000    -2.610000000    -3.290000000
H     6.601000000    -2.902000000    -2.459000000
H     7.681000000    -2.016000000    -3.039000000
O     0.833000000    -7.740000000     0.436000000
H     1.617000000    -8.261000000     0.264000000
H     1.168000000    -6.879000000     0.688000000
O     0.768000000    -4.604000000    -7.272000000
H     1.463000000    -4.049000000    -6.920000000
H     0.329000000    -4.957000000    -6.499000000
