215
-1466.03390
C     3.679000000     2.248000000    -1.729000000
H     3.072000000     3.044000000    -1.305000000
C     3.202000000     1.500000000    -2.850000000
C     3.914000000     0.480000000    -3.376000000
H     3.596000000    -0.124000000    -4.221000000
C     1.781000000     1.619000000    -3.451000000
O     1.287000000     3.007000000    -3.590000000
H     1.190000000     1.061000000    -2.710000000
O     1.544000000     0.878000000    -4.678000000
C     0.415000000     0.115000000    -4.670000000
C     0.515000000    -1.230000000    -4.437000000
H     1.491000000    -1.688000000    -4.297000000
C    -0.638000000    -2.037000000    -4.285000000
O    -0.488000000    -3.378000000    -3.945000000
C    -1.888000000    -1.397000000    -4.421000000
C    -3.212000000    -2.144000000    -4.140000000
H    -4.018000000    -1.519000000    -4.530000000
C    -3.501000000    -2.268000000    -2.657000000
C    -4.372000000    -1.377000000    -2.080000000
H    -4.877000000    -0.616000000    -2.669000000
H    -3.149000000    -3.077000000    -4.704000000
C    -1.959000000    -0.069000000    -4.771000000
H    -2.952000000     0.370000000    -4.819000000
C    -0.853000000     0.728000000    -4.847000000
C    -1.091000000     2.245000000    -4.953000000
H    -1.971000000     2.486000000    -5.554000000
H    -0.255000000     2.589000000    -5.566000000
C    -1.104000000     2.969000000    -3.615000000
C    -2.298000000     3.290000000    -3.010000000
H    -3.201000000     2.980000000    -3.529000000
C     0.061000000     3.270000000    -2.984000000
C     0.098000000     3.831000000    -1.726000000
H     1.058000000     4.101000000    -1.295000000
C    -1.060000000     4.308000000    -1.135000000
O    -0.902000000     4.876000000     0.101000000
C    -1.120000000     4.100000000     1.254000000
C    -0.083000000     4.402000000     2.394000000
C    -0.519000000     4.169000000     3.761000000
H    -1.489000000     3.713000000     3.942000000
C     1.135000000     5.001000000     2.122000000
H     1.433000000     5.159000000     1.089000000
O    -2.451000000     4.243000000     1.706000000
H    -0.903000000     3.055000000     0.990000000
C    -2.249000000     4.032000000    -1.763000000
C    -3.527000000     4.301000000    -1.007000000
H    -4.378000000     4.483000000    -1.667000000
H    -3.450000000     5.232000000    -0.442000000
C    -3.776000000     3.172000000    -0.038000000
C    -4.528000000     2.041000000    -0.403000000
H    -4.879000000     2.054000000    -1.432000000
C    -3.372000000     3.201000000     1.344000000
C    -3.497000000     2.011000000     2.110000000
H    -3.084000000     1.901000000     3.110000000
C    -4.278000000     0.974000000     1.651000000
O    -4.218000000    -0.105000000     2.491000000
C    -3.315000000    -1.158000000     2.091000000
C    -2.542000000    -1.774000000     3.250000000
C    -1.989000000    -0.852000000     4.162000000
H    -2.208000000     0.209000000     4.073000000
C    -2.203000000    -3.177000000     3.334000000
H    -2.498000000    -3.856000000     2.537000000
O    -4.083000000    -2.151000000     1.417000000
H    -2.568000000    -0.713000000     1.418000000
C    -4.754000000     0.937000000     0.350000000
C    -5.522000000    -0.333000000    -0.138000000
H    -6.265000000    -0.023000000    -0.877000000
H    -6.114000000    -0.721000000     0.694000000
C    -4.555000000    -1.325000000    -0.695000000
C    -3.875000000    -2.259000000     0.085000000
C    -2.976000000    -3.138000000    -0.467000000
H    -2.456000000    -3.833000000     0.188000000
C    -2.808000000    -3.115000000    -1.849000000
O    -1.883000000    -4.028000000    -2.246000000
C    -0.564000000    -3.615000000    -2.607000000
H    -0.509000000    -2.662000000    -2.059000000
C     0.578000000    -4.397000000    -2.079000000
C     1.749000000    -4.556000000    -2.815000000
H     1.795000000    -4.136000000    -3.816000000
C     0.499000000    -4.871000000    -0.779000000
H    -0.422000000    -4.704000000    -0.227000000
C     1.573000000    -5.577000000    -0.269000000
O     1.518000000    -6.179000000     0.997000000
C     2.802000000    -5.666000000    -0.951000000
H     3.717000000    -6.030000000    -0.490000000
C     2.930000000    -5.061000000    -2.222000000
O     4.089000000    -5.081000000    -2.962000000
C     4.591000000    -4.058000000    -3.676000000
C     5.107000000    -2.907000000    -3.029000000
H     5.151000000    -2.957000000    -1.944000000
C     4.751000000    -4.214000000    -5.040000000
H     4.345000000    -5.146000000    -5.425000000
C     5.337000000    -3.211000000    -5.821000000
H     5.393000000    -3.342000000    -6.899000000
C     5.822000000    -2.065000000    -5.187000000
H     6.226000000    -1.208000000    -5.721000000
C     5.566000000    -1.847000000    -3.834000000
O     6.000000000    -0.649000000    -3.271000000
C     5.147000000     0.186000000    -2.721000000
C     5.683000000     0.946000000    -1.654000000
H     6.662000000     0.695000000    -1.255000000
C     4.931000000     2.000000000    -1.135000000
O     5.389000000     2.721000000    -0.033000000
C     4.915000000     4.036000000     0.330000000
C     4.323000000     4.164000000     1.575000000
H     4.013000000     3.260000000     2.092000000
C     5.334000000     5.141000000    -0.387000000
H     5.942000000     4.942000000    -1.266000000
C     4.903000000     6.437000000     0.047000000
H     5.140000000     7.362000000    -0.473000000
C     4.338000000     6.571000000     1.337000000
H     4.101000000     7.556000000     1.732000000
C     4.073000000     5.435000000     2.036000000
O     3.233000000     5.640000000     3.111000000
C     2.045000000     5.028000000     3.205000000
C     1.653000000     4.765000000     4.528000000
H     2.403000000     4.946000000     5.295000000
C     0.363000000     4.419000000     4.857000000
O    -0.026000000     4.240000000     6.138000000
C    -0.778000000     3.181000000     6.560000000
C    -0.419000000     1.919000000     6.217000000
H     0.555000000     1.847000000     5.740000000
C    -2.048000000     3.413000000     7.126000000
H    -2.308000000     4.440000000     7.371000000
C    -2.875000000     2.330000000     7.452000000
H    -3.818000000     2.418000000     7.987000000
C    -2.447000000     1.048000000     7.158000000
H    -3.023000000     0.164000000     7.420000000
C    -1.197000000     0.815000000     6.523000000
O    -0.759000000    -0.462000000     6.233000000
C    -1.383000000    -1.358000000     5.361000000
C    -1.168000000    -2.740000000     5.503000000
H    -0.695000000    -3.233000000     6.349000000
C    -1.530000000    -3.706000000     4.520000000
O    -1.198000000    -5.057000000     4.665000000
C    -0.923000000    -5.821000000     3.624000000
C    -1.849000000    -6.804000000     3.287000000
H    -2.674000000    -7.048000000     3.951000000
C    -1.617000000    -7.656000000     2.177000000
H    -2.287000000    -8.442000000     1.837000000
C    -0.488000000    -7.464000000     1.470000000
H    -0.452000000    -8.082000000     0.577000000
C     0.427000000    -6.451000000     1.723000000
C     0.256000000    -5.673000000     2.867000000
H     0.894000000    -4.807000000     3.024000000
C     2.596000000     0.578000000     1.518000000
H     2.886000000     1.167000000     2.385000000
C     1.295000000     0.616000000     0.979000000
H     0.627000000     1.317000000     1.473000000
C     0.929000000    -0.155000000    -0.102000000
H    -0.092000000    -0.055000000    -0.534000000
C     1.892000000    -0.946000000    -0.771000000
H     1.667000000    -1.542000000    -1.652000000
C     3.170000000    -0.974000000    -0.252000000
H     3.948000000    -1.577000000    -0.713000000
C     3.545000000    -0.248000000     0.874000000
C     4.955000000    -0.370000000     1.378000000
O     5.685000000    -1.226000000     0.917000000
O     5.392000000     0.253000000     2.316000000
O     5.266000000    -2.009000000     4.861000000
H     5.587000000    -1.839000000     5.746000000
H     5.420000000    -1.191000000     4.389000000
O     5.472000000    -3.919000000     1.294000000
H     5.601000000    -2.995000000     1.079000000
H     4.746000000    -3.922000000     1.918000000
O     8.209000000     3.577000000    -0.677000000
H     8.800000000     4.211000000    -0.270000000
H     7.753000000     3.168000000     0.058000000
O     7.825000000    -1.840000000     3.520000000
H     7.253000000    -1.586000000     2.796000000
H     8.640000000    -1.364000000     3.360000000
O     8.562000000    -4.459000000     3.912000000
H     8.445000000    -3.533000000     3.698000000
H     7.850000000    -4.656000000     4.520000000
O     8.175000000    -0.638000000     0.211000000
H     7.253000000    -0.879000000     0.309000000
H     8.633000000    -1.474000000     0.130000000
O     8.084000000    -4.750000000     0.974000000
H     8.418000000    -4.978000000     1.842000000
H     7.164000000    -4.531000000     1.122000000
O     3.739000000     1.960000000     4.733000000
H     4.595000000     1.541000000     4.829000000
H     3.940000000     2.858000000     4.472000000
O     1.621000000    -2.100000000     2.452000000
H     1.441000000    -1.652000000     1.626000000
H     1.700000000    -1.396000000     3.095000000
O     7.525000000     4.382000000     2.593000000
H     6.607000000     4.397000000     2.862000000
H     7.701000000     3.463000000     2.393000000
O     9.234000000     1.251000000     4.209000000
H     9.272000000     1.583000000     3.312000000
H     9.769000000     1.864000000     4.714000000
O     2.720000000    -0.576000000     4.820000000
H     3.479000000    -1.157000000     4.761000000
H     3.089000000     0.306000000     4.782000000
O     6.137000000     0.508000000     4.645000000
H     7.086000000     0.581000000     4.547000000
H     5.817000000     0.327000000     3.761000000
O     6.421000000    -4.361000000     5.577000000
H     6.238000000    -3.522000000     5.156000000
H     5.644000000    -4.538000000     6.107000000
O     7.566000000     1.788000000     1.671000000
H     7.933000000     1.034000000     1.210000000
H     6.776000000     1.450000000     2.091000000
O     3.759000000    -3.822000000     3.457000000
H     2.986000000    -3.477000000     3.010000000
H     4.120000000    -3.069000000     3.925000000
O     9.734000000    -2.825000000     0.028000000
H    10.412000000    -2.885000000     0.701000000
H     9.134000000    -3.544000000     0.227000000
O     5.976000000     2.002000000     7.092000000
H     6.101000000     1.350000000     6.402000000
H     6.088000000     1.513000000     7.907000000
O    10.210000000     1.503000000    -0.613000000
H     9.546000000     2.159000000    -0.824000000
H     9.745000000     0.667000000    -0.659000000
