215
-1443.36352
C     3.301000000     3.097000000    -1.748000000
H     2.692000000     3.744000000    -1.122000000
C     2.689000000     2.539000000    -2.903000000
C     3.484000000     1.670000000    -3.617000000
H     3.177000000     1.167000000    -4.531000000
C     1.169000000     2.499000000    -3.086000000
O     0.536000000     3.765000000    -2.935000000
H     0.841000000     1.715000000    -2.388000000
O     0.804000000     2.075000000    -4.428000000
C    -0.243000000     1.217000000    -4.574000000
C     0.073000000    -0.098000000    -4.397000000
H     1.110000000    -0.341000000    -4.616000000
C    -0.886000000    -1.090000000    -4.284000000
O    -0.423000000    -2.346000000    -4.217000000
C    -2.250000000    -0.774000000    -4.395000000
C    -3.318000000    -1.875000000    -4.181000000
H    -4.301000000    -1.561000000    -4.539000000
C    -3.426000000    -2.344000000    -2.672000000
C    -4.381000000    -1.661000000    -1.906000000
H    -4.986000000    -0.845000000    -2.293000000
H    -3.173000000    -2.753000000    -4.815000000
C    -2.598000000     0.600000000    -4.406000000
H    -3.635000000     0.925000000    -4.418000000
C    -1.589000000     1.611000000    -4.425000000
C    -1.962000000     3.023000000    -4.326000000
H    -2.983000000     3.186000000    -4.676000000
H    -1.340000000     3.675000000    -4.944000000
C    -1.844000000     3.506000000    -2.914000000
C    -2.971000000     3.556000000    -2.159000000
H    -3.891000000     3.082000000    -2.492000000
C    -0.642000000     3.877000000    -2.335000000
C    -0.607000000     4.386000000    -1.060000000
H     0.279000000     4.826000000    -0.609000000
C    -1.762000000     4.534000000    -0.304000000
O    -1.658000000     4.818000000     1.055000000
C    -1.467000000     3.725000000     1.917000000
C    -0.413000000     3.938000000     3.010000000
C    -0.483000000     3.243000000     4.251000000
H    -1.309000000     2.590000000     4.520000000
C     0.630000000     4.722000000     2.738000000
H     0.748000000     5.197000000     1.768000000
O    -2.781000000     3.462000000     2.500000000
H    -1.144000000     2.892000000     1.276000000
C    -2.968000000     4.008000000    -0.841000000
C    -4.227000000     3.708000000     0.042000000
H    -5.051000000     3.616000000    -0.668000000
H    -4.423000000     4.536000000     0.727000000
C    -4.248000000     2.478000000     0.866000000
C    -4.935000000     1.313000000     0.409000000
H    -5.408000000     1.309000000    -0.569000000
C    -3.461000000     2.376000000     2.062000000
C    -3.326000000     1.145000000     2.682000000
H    -2.775000000     1.040000000     3.614000000
C    -3.996000000     0.021000000     2.226000000
O    -3.722000000    -1.174000000     2.860000000
C    -2.760000000    -2.070000000     2.262000000
C    -1.752000000    -2.565000000     3.314000000
C    -1.612000000    -1.905000000     4.562000000
H    -2.137000000    -0.972000000     4.748000000
C    -0.895000000    -3.683000000     2.922000000
H    -0.968000000    -3.989000000     1.882000000
O    -3.436000000    -3.101000000     1.452000000
H    -2.182000000    -1.390000000     1.618000000
C    -4.758000000     0.094000000     1.059000000
C    -5.333000000    -1.164000000     0.423000000
H    -6.192000000    -0.836000000    -0.166000000
H    -5.898000000    -1.748000000     1.153000000
C    -4.363000000    -1.896000000    -0.514000000
C    -3.510000000    -2.907000000     0.075000000
C    -2.688000000    -3.632000000    -0.738000000
H    -1.991000000    -4.396000000    -0.403000000
C    -2.673000000    -3.378000000    -2.192000000
O    -1.659000000    -3.909000000    -2.920000000
C    -0.482000000    -3.101000000    -3.006000000
H    -0.475000000    -2.328000000    -2.223000000
C     0.763000000    -3.906000000    -2.756000000
C     2.068000000    -3.491000000    -3.027000000
H     2.215000000    -2.562000000    -3.570000000
C     0.711000000    -5.069000000    -2.009000000
H    -0.251000000    -5.391000000    -1.618000000
C     1.870000000    -5.888000000    -1.766000000
O     1.728000000    -6.956000000    -0.914000000
C     3.068000000    -5.478000000    -2.219000000
H     3.980000000    -6.049000000    -2.065000000
C     3.207000000    -4.262000000    -2.855000000
O     4.428000000    -3.915000000    -3.241000000
C     4.573000000    -2.894000000    -4.199000000
C     4.936000000    -1.597000000    -3.710000000
H     5.064000000    -1.441000000    -2.642000000
C     4.519000000    -3.111000000    -5.542000000
H     4.335000000    -4.088000000    -5.982000000
C     4.893000000    -2.138000000    -6.431000000
H     4.884000000    -2.364000000    -7.494000000
C     5.214000000    -0.846000000    -5.998000000
H     5.333000000    -0.073000000    -6.753000000
C     5.144000000    -0.525000000    -4.594000000
O     5.601000000     0.803000000    -4.208000000
C     4.864000000     1.510000000    -3.387000000
C     5.399000000     2.175000000    -2.315000000
H     6.394000000     1.856000000    -2.015000000
C     4.624000000     2.914000000    -1.443000000
O     5.197000000     3.473000000    -0.277000000
C     4.699000000     4.635000000     0.244000000
C     3.878000000     4.561000000     1.391000000
H     3.774000000     3.614000000     1.915000000
C     4.880000000     5.916000000    -0.391000000
H     5.513000000     5.987000000    -1.272000000
C     4.350000000     7.030000000     0.233000000
H     4.539000000     8.001000000    -0.219000000
C     3.543000000     6.888000000     1.395000000
H     3.051000000     7.793000000     1.743000000
C     3.328000000     5.680000000     1.993000000
O     2.742000000     5.618000000     3.244000000
C     1.713000000     4.796000000     3.569000000
C     1.633000000     4.219000000     4.859000000
H     2.426000000     4.243000000     5.602000000
C     0.545000000     3.445000000     5.153000000
O     0.575000000     2.702000000     6.308000000
C    -0.299000000     1.724000000     6.700000000
C     0.028000000     0.415000000     6.431000000
H     0.960000000     0.157000000     5.934000000
C    -1.397000000     2.056000000     7.571000000
H    -1.600000000     3.084000000     7.859000000
C    -2.147000000     1.023000000     8.016000000
H    -2.984000000     1.367000000     8.619000000
C    -1.857000000    -0.308000000     7.777000000
H    -2.573000000    -1.097000000     7.993000000
C    -0.765000000    -0.586000000     6.961000000
O    -0.468000000    -1.853000000     6.742000000
C    -0.655000000    -2.361000000     5.473000000
C     0.073000000    -3.536000000     5.113000000
H     0.815000000    -3.910000000     5.813000000
C    -0.023000000    -4.166000000     3.871000000
O     0.806000000    -5.206000000     3.556000000
C     0.518000000    -6.016000000     2.539000000
C    -0.370000000    -7.078000000     2.758000000
H    -0.872000000    -7.175000000     3.718000000
C    -0.628000000    -7.971000000     1.735000000
H    -1.209000000    -8.879000000     1.872000000
C    -0.016000000    -7.822000000     0.496000000
H    -0.404000000    -8.408000000    -0.333000000
C     1.024000000    -6.906000000     0.264000000
C     1.254000000    -5.944000000     1.338000000
H     2.009000000    -5.162000000     1.348000000
C     1.616000000     0.446000000     2.175000000
H     1.718000000     0.491000000     3.256000000
C     0.442000000     0.439000000     1.472000000
H    -0.457000000     0.546000000     2.075000000
C     0.367000000     0.226000000     0.087000000
H    -0.634000000     0.173000000    -0.351000000
C     1.532000000     0.114000000    -0.606000000
H     1.465000000    -0.099000000    -1.669000000
C     2.694000000     0.286000000     0.050000000
H     3.554000000     0.250000000    -0.614000000
C     2.805000000     0.387000000     1.407000000
C     4.080000000     0.515000000     2.085000000
O     5.075000000     0.107000000     1.486000000
O     4.093000000     0.849000000     3.267000000
O     4.654000000    -2.203000000     0.388000000
H     4.731000000    -1.368000000     0.849000000
H     3.740000000    -2.460000000     0.508000000
O     8.090000000     3.324000000     0.062000000
H     8.184000000     3.986000000    -0.624000000
H     7.362000000     3.637000000     0.598000000
O     6.240000000    -0.444000000     4.257000000
H     5.590000000     0.057000000     3.765000000
H     6.275000000    -1.292000000     3.814000000
O     7.406000000    -2.031000000    -0.860000000
H     7.052000000    -1.176000000    -0.613000000
H     6.675000000    -2.637000000    -0.742000000
O     3.995000000     2.016000000     5.596000000
H     3.979000000     1.793000000     4.666000000
H     4.129000000     1.180000000     6.041000000
O     5.696000000    -4.910000000     0.723000000
H     5.285000000    -5.193000000     1.540000000
H     5.137000000    -4.200000000     0.407000000
O     2.042000000    -2.606000000     1.704000000
H     2.446000000    -2.409000000     2.549000000
H     1.535000000    -1.822000000     1.493000000
O     8.802000000     0.550000000    -2.846000000
H     8.086000000     0.461000000    -2.216000000
H     9.484000000    -0.036000000    -2.518000000
O     3.438000000    -2.561000000     4.014000000
H     3.217000000    -3.345000000     4.518000000
H     4.371000000    -2.656000000     3.820000000
O     7.636000000     3.594000000     6.568000000
H     8.307000000     3.409000000     7.224000000
H     7.471000000     2.750000000     6.149000000
O     7.920000000    -0.066000000     6.227000000
H     7.293000000    -0.229000000     5.523000000
H     7.403000000    -0.139000000     7.030000000
O     5.769000000     5.773000000     3.884000000
H     5.204000000     5.475000000     4.597000000
H     6.047000000     4.968000000     3.446000000
O     4.740000000     4.388000000     6.336000000
H     5.680000000     4.224000000     6.259000000
H     4.332000000     3.549000000     6.119000000
O     7.083000000     3.197000000     3.087000000
H     6.532000000     2.456000000     3.338000000
H     7.973000000     2.917000000     3.302000000
O     2.931000000     1.818000000     8.250000000
H     2.077000000     2.110000000     7.932000000
H     3.409000000     1.567000000     7.459000000
O     6.068000000    -3.194000000     3.600000000
H     6.422000000    -4.044000000     3.863000000
H     6.032000000    -3.236000000     2.644000000
O     7.315000000     0.551000000    -0.165000000
H     6.553000000     0.524000000     0.413000000
H     7.792000000     1.337000000     0.104000000
O     3.984000000    -0.694000000     6.164000000
H     3.482000000    -0.822000000     5.359000000
H     4.895000000    -0.646000000     5.874000000
O     5.267000000    -2.999000000     7.153000000
H     4.777000000    -2.179000000     7.094000000
H     6.170000000    -2.753000000     6.952000000
