215
-1431.68087
C     4.456000000     2.655000000    -2.196000000
H     4.214000000     3.622000000    -1.763000000
C     3.497000000     1.924000000    -2.908000000
C     3.845000000     0.647000000    -3.317000000
H     3.130000000    -0.031000000    -3.776000000
C     2.100000000     2.421000000    -3.103000000
O     1.968000000     3.867000000    -3.018000000
H     1.509000000     1.901000000    -2.334000000
O     1.447000000     1.999000000    -4.344000000
C     0.188000000     1.547000000    -4.298000000
C    -0.124000000     0.175000000    -4.417000000
H     0.685000000    -0.538000000    -4.558000000
C    -1.395000000    -0.311000000    -4.366000000
O    -1.553000000    -1.721000000    -4.253000000
C    -2.453000000     0.576000000    -4.125000000
C    -3.858000000     0.076000000    -3.943000000
H    -4.560000000     0.822000000    -4.322000000
C    -4.151000000    -0.365000000    -2.528000000
C    -4.748000000     0.519000000    -1.672000000
H    -4.945000000     1.516000000    -2.058000000
H    -4.037000000    -0.828000000    -4.528000000
C    -2.167000000     1.953000000    -4.029000000
H    -2.940000000     2.693000000    -3.839000000
C    -0.907000000     2.443000000    -4.147000000
C    -0.642000000     3.916000000    -4.091000000
H    -1.482000000     4.484000000    -4.498000000
H     0.116000000     4.195000000    -4.826000000
C    -0.362000000     4.259000000    -2.664000000
C    -1.400000000     4.532000000    -1.774000000
H    -2.422000000     4.503000000    -2.145000000
C     0.931000000     4.290000000    -2.222000000
C     1.265000000     4.579000000    -0.925000000
H     2.271000000     4.492000000    -0.522000000
C     0.225000000     4.809000000    -0.050000000
O     0.658000000     4.733000000     1.315000000
C     0.341000000     3.491000000     1.929000000
C     1.484000000     2.982000000     2.703000000
C     1.375000000     1.818000000     3.448000000
H     0.456000000     1.243000000     3.369000000
C     2.752000000     3.644000000     2.688000000
H     2.899000000     4.516000000     2.055000000
O    -0.801000000     3.586000000     2.790000000
H     0.193000000     2.784000000     1.100000000
C    -1.079000000     4.927000000    -0.455000000
C    -2.178000000     5.121000000     0.656000000
H    -2.972000000     5.723000000     0.210000000
H    -1.763000000     5.682000000     1.495000000
C    -2.646000000     3.777000000     1.200000000
C    -3.777000000     3.218000000     0.677000000
H    -4.277000000     3.707000000    -0.155000000
C    -1.969000000     3.167000000     2.253000000
C    -2.474000000     2.010000000     2.870000000
H    -1.985000000     1.502000000     3.697000000
C    -3.601000000     1.470000000     2.385000000
O    -3.997000000     0.268000000     2.959000000
C    -3.633000000    -0.954000000     2.273000000
C    -3.107000000    -2.160000000     3.145000000
C    -2.504000000    -1.823000000     4.346000000
H    -2.207000000    -0.802000000     4.570000000
C    -3.314000000    -3.464000000     2.815000000
H    -3.858000000    -3.755000000     1.921000000
O    -4.806000000    -1.299000000     1.574000000
H    -2.890000000    -0.659000000     1.517000000
C    -4.300000000     2.033000000     1.277000000
C    -5.487000000     1.318000000     0.652000000
H    -6.087000000     2.005000000     0.053000000
H    -6.126000000     0.961000000     1.463000000
C    -5.076000000     0.196000000    -0.327000000
C    -4.677000000    -1.062000000     0.174000000
C    -4.238000000    -2.048000000    -0.658000000
H    -4.020000000    -3.046000000    -0.285000000
C    -3.924000000    -1.640000000    -1.992000000
O    -3.370000000    -2.545000000    -2.771000000
C    -1.974000000    -2.352000000    -2.994000000
H    -1.561000000    -1.652000000    -2.252000000
C    -1.131000000    -3.603000000    -2.629000000
C     0.226000000    -3.563000000    -2.840000000
H     0.710000000    -2.781000000    -3.420000000
C    -1.652000000    -4.747000000    -2.001000000
H    -2.727000000    -4.701000000    -1.847000000
C    -0.871000000    -5.866000000    -1.643000000
O    -1.440000000    -6.963000000    -0.945000000
C     0.483000000    -5.797000000    -1.957000000
H     1.063000000    -6.647000000    -1.607000000
C     1.064000000    -4.649000000    -2.560000000
O     2.436000000    -4.573000000    -2.535000000
C     3.133000000    -3.838000000    -3.493000000
C     4.086000000    -2.969000000    -3.073000000
H     4.323000000    -2.881000000    -2.016000000
C     2.784000000    -3.844000000    -4.821000000
H     1.976000000    -4.483000000    -5.166000000
C     3.475000000    -3.089000000    -5.759000000
H     3.285000000    -3.284000000    -6.811000000
C     4.357000000    -2.129000000    -5.286000000
H     4.827000000    -1.405000000    -5.948000000
C     4.675000000    -2.027000000    -3.947000000
O     5.574000000    -1.120000000    -3.478000000
C     5.119000000     0.138000000    -3.123000000
C     6.056000000     0.877000000    -2.467000000
H     7.044000000     0.482000000    -2.244000000
C     5.728000000     2.143000000    -1.942000000
O     6.709000000     2.788000000    -1.166000000
C     6.575000000     3.582000000    -0.035000000
C     5.878000000     3.183000000     1.157000000
H     5.480000000     2.176000000     1.247000000
C     7.280000000     4.820000000    -0.079000000
H     7.851000000     5.112000000    -0.956000000
C     7.208000000     5.682000000     0.968000000
H     7.728000000     6.635000000     0.921000000
C     6.406000000     5.377000000     2.082000000
H     6.214000000     6.178000000     2.791000000
C     5.781000000     4.096000000     2.223000000
O     5.019000000     3.737000000     3.300000000
C     3.848000000     3.129000000     3.323000000
C     3.619000000     1.963000000     4.093000000
H     4.549000000     1.501000000     4.412000000
C     2.466000000     1.299000000     4.159000000
O     2.334000000    -0.003000000     4.621000000
C     1.381000000    -0.258000000     5.545000000
C     0.495000000    -1.331000000     5.431000000
H     0.579000000    -1.864000000     4.487000000
C     1.311000000     0.606000000     6.701000000
H     1.821000000     1.564000000     6.754000000
C     0.319000000     0.322000000     7.703000000
H     0.190000000     0.984000000     8.556000000
C    -0.548000000    -0.764000000     7.488000000
H    -1.300000000    -1.006000000     8.235000000
C    -0.373000000    -1.620000000     6.417000000
O    -1.321000000    -2.571000000     6.312000000
C    -2.041000000    -2.805000000     5.188000000
C    -2.227000000    -4.144000000     4.884000000
H    -1.731000000    -4.873000000     5.520000000
C    -2.831000000    -4.495000000     3.700000000
O    -3.116000000    -5.828000000     3.424000000
C    -3.335000000    -6.356000000     2.139000000
C    -4.582000000    -6.805000000     1.737000000
H    -5.357000000    -6.956000000     2.485000000
C    -4.774000000    -7.420000000     0.445000000
H    -5.678000000    -7.987000000     0.236000000
C    -3.691000000    -7.434000000    -0.407000000
H    -3.743000000    -7.950000000    -1.363000000
C    -2.491000000    -6.829000000    -0.042000000
C    -2.297000000    -6.302000000     1.221000000
H    -1.318000000    -6.031000000     1.608000000
C     2.707000000    -0.852000000     0.799000000
H     3.692000000    -0.407000000     0.682000000
C     1.731000000     0.013000000     0.261000000
H     1.849000000     1.081000000     0.098000000
C     0.438000000    -0.483000000     0.080000000
H    -0.388000000     0.193000000    -0.322000000
C     0.171000000    -1.735000000     0.536000000
H    -0.842000000    -2.124000000     0.469000000
C     1.126000000    -2.607000000     1.077000000
H     0.756000000    -3.496000000     1.580000000
C     2.457000000    -2.172000000     1.089000000
C     3.524000000    -2.967000000     1.738000000
O     3.426000000    -4.195000000     1.783000000
O     4.583000000    -2.463000000     1.949000000
O     2.093000000    -6.300000000     0.581000000
H     2.330000000    -5.389000000     0.758000000
H     2.659000000    -6.558000000    -0.147000000
O     6.408000000    -4.051000000     3.276000000
H     6.090000000    -4.418000000     4.100000000
H     5.691000000    -3.497000000     2.967000000
O     5.492000000    -4.933000000     0.308000000
H     5.003000000    -4.433000000     0.962000000
H     4.825000000    -5.443000000    -0.151000000
O     7.158000000    -6.639000000     2.375000000
H     7.118000000    -5.683000000     2.391000000
H     6.450000000    -6.899000000     1.785000000
O     7.270000000     0.974000000     3.618000000
H     7.003000000     0.373000000     2.922000000
H     7.396000000     0.413000000     4.383000000
O     3.253000000    -6.258000000     6.719000000
H     2.510000000    -5.673000000     6.870000000
H     3.452000000    -6.157000000     5.788000000
O     3.497000000    -5.225000000     4.220000000
H     3.523000000    -4.717000000     3.408000000
H     3.915000000    -4.659000000     4.869000000
O     7.079000000    -0.958000000     1.885000000
H     6.233000000    -1.385000000     2.019000000
H     7.683000000    -1.677000000     1.702000000
O     1.113000000    -4.711000000     6.617000000
H     0.980000000    -4.199000000     5.819000000
H     1.177000000    -4.057000000     7.313000000
O     1.137000000    -8.921000000     0.551000000
H     0.331000000    -8.905000000     0.035000000
H     1.462000000    -8.022000000     0.516000000
O     7.915000000    -2.776000000    -3.390000000
H     7.772000000    -3.230000000    -2.559000000
H     7.193000000    -2.151000000    -3.449000000
O     5.195000000    -3.730000000     5.863000000
H     4.756000000    -3.591000000     6.702000000
H     5.842000000    -3.026000000     5.811000000
O     9.735000000    -1.810000000    -0.912000000
H     9.859000000    -1.041000000    -0.356000000
H     8.830000000    -2.078000000    -0.753000000
O     8.665000000     0.638000000     0.296000000
H     8.082000000     0.784000000    -0.450000000
H     8.080000000     0.391000000     1.012000000
O     7.393000000    -3.256000000    -0.478000000
H     6.552000000    -3.526000000    -0.108000000
H     7.969000000    -4.007000000    -0.336000000
O     2.304000000    -7.586000000     3.422000000
H     2.806000000    -6.931000000     3.907000000
H     2.144000000    -7.181000000     2.570000000
O     5.590000000    -8.122000000     0.728000000
H     5.080000000    -7.469000000     0.250000000
H     5.009000000    -8.881000000     0.789000000
O     4.177000000    -6.948000000    -1.273000000
H     4.225000000    -6.285000000    -1.961000000
H     4.390000000    -7.769000000    -1.716000000
O     8.938000000    -2.967000000     2.580000000
H     9.600000000    -3.647000000     2.458000000
H     8.104000000    -3.435000000     2.540000000
