215
-1448.48817
C    -4.088000000    -1.616000000    -2.749000000
H    -4.018000000    -0.726000000    -3.369000000
C    -4.439000000    -1.502000000    -1.345000000
C    -4.573000000    -2.676000000    -0.557000000
H    -4.798000000    -2.571000000     0.501000000
C    -4.383000000    -0.104000000    -0.672000000
O    -4.617000000     0.926000000    -1.618000000
H    -3.313000000    -0.012000000    -0.431000000
O    -5.231000000     0.050000000     0.507000000
C    -4.589000000     0.533000000     1.608000000
C    -3.860000000    -0.365000000     2.395000000
H    -3.766000000    -1.427000000     2.182000000
C    -3.002000000     0.139000000     3.367000000
O    -2.379000000    -0.778000000     4.230000000
C    -2.857000000     1.525000000     3.503000000
C    -1.947000000     2.051000000     4.637000000
H    -2.291000000     3.029000000     4.979000000
C    -0.436000000     2.072000000     4.280000000
C     0.162000000     3.236000000     3.810000000
H    -0.489000000     4.107000000     3.791000000
H    -1.997000000     1.473000000     5.562000000
C    -3.576000000     2.428000000     2.656000000
H    -3.445000000     3.506000000     2.691000000
C    -4.378000000     1.919000000     1.664000000
C    -4.887000000     2.830000000     0.687000000
H    -5.033000000     3.833000000     1.094000000
H    -5.826000000     2.476000000     0.256000000
C    -3.903000000     2.946000000    -0.457000000
C    -2.981000000     4.020000000    -0.471000000
H    -3.022000000     4.691000000     0.383000000
C    -3.824000000     2.055000000    -1.530000000
C    -2.831000000     2.269000000    -2.518000000
H    -2.766000000     1.559000000    -3.340000000
C    -1.898000000     3.281000000    -2.469000000
O    -0.990000000     3.414000000    -3.470000000
C     0.358000000     2.941000000    -3.214000000
C     0.990000000     2.123000000    -4.361000000
C     2.406000000     2.088000000    -4.628000000
H     3.030000000     2.787000000    -4.078000000
C     0.202000000     1.080000000    -4.823000000
H    -0.841000000     0.997000000    -4.529000000
O     1.165000000     4.076000000    -2.976000000
H     0.351000000     2.260000000    -2.349000000
C    -1.967000000     4.156000000    -1.376000000
C    -1.028000000     5.347000000    -1.275000000
H    -1.491000000     6.138000000    -0.681000000
H    -1.023000000     5.786000000    -2.275000000
C     0.408000000     4.967000000    -0.794000000
C     0.697000000     5.069000000     0.528000000
H    -0.026000000     5.562000000     1.173000000
C     1.403000000     4.373000000    -1.630000000
C     2.565000000     3.844000000    -1.108000000
H     3.148000000     3.264000000    -1.818000000
C     2.847000000     3.927000000     0.219000000
O     3.896000000     3.175000000     0.654000000
C     3.508000000     1.942000000     1.269000000
C     4.404000000     0.775000000     0.847000000
C     4.989000000     0.701000000    -0.385000000
H     4.849000000     1.575000000    -1.017000000
C     4.590000000    -0.154000000     1.848000000
H     4.110000000    -0.102000000     2.822000000
O     3.406000000     2.113000000     2.749000000
H     2.533000000     1.737000000     0.802000000
C     1.908000000     4.548000000     1.094000000
C     1.994000000     4.527000000     2.640000000
H     1.599000000     5.485000000     2.986000000
H     3.071000000     4.623000000     2.790000000
C     1.454000000     3.245000000     3.333000000
C     2.182000000     2.045000000     3.310000000
C     1.629000000     0.849000000     3.812000000
H     2.021000000    -0.164000000     3.827000000
C     0.349000000     0.851000000     4.335000000
O    -0.228000000    -0.265000000     4.787000000
C    -1.035000000    -1.041000000     3.954000000
H    -0.734000000    -0.716000000     2.947000000
C    -0.671000000    -2.551000000     3.999000000
C    -1.412000000    -3.479000000     3.336000000
H    -2.414000000    -3.155000000     3.064000000
C     0.569000000    -2.898000000     4.566000000
H     1.267000000    -2.256000000     5.097000000
C     1.104000000    -4.220000000     4.421000000
O     2.334000000    -4.523000000     4.873000000
C     0.201000000    -5.182000000     3.844000000
H     0.472000000    -6.235000000     3.839000000
C    -1.086000000    -4.843000000     3.353000000
O    -2.010000000    -5.832000000     3.003000000
C    -3.335000000    -5.678000000     2.598000000
C    -3.644000000    -5.276000000     1.298000000
H    -2.831000000    -5.004000000     0.630000000
C    -4.274000000    -6.057000000     3.471000000
H    -4.019000000    -6.350000000     4.486000000
C    -5.620000000    -6.075000000     3.060000000
H    -6.356000000    -6.572000000     3.686000000
C    -5.941000000    -5.717000000     1.718000000
H    -6.956000000    -5.922000000     1.385000000
C    -4.924000000    -5.342000000     0.871000000
O    -5.167000000    -4.987000000    -0.487000000
C    -4.634000000    -3.960000000    -1.197000000
C    -4.384000000    -3.990000000    -2.580000000
H    -4.380000000    -4.951000000    -3.088000000
C    -4.186000000    -2.901000000    -3.367000000
O    -3.845000000    -3.111000000    -4.702000000
C    -3.317000000    -2.070000000    -5.474000000
C    -1.909000000    -1.919000000    -5.513000000
H    -1.295000000    -2.496000000    -4.827000000
C    -4.134000000    -1.230000000    -6.223000000
H    -5.220000000    -1.274000000    -6.274000000
C    -3.534000000    -0.348000000    -7.138000000
H    -4.172000000     0.159000000    -7.857000000
C    -2.156000000    -0.224000000    -7.153000000
H    -1.695000000     0.408000000    -7.908000000
C    -1.343000000    -0.952000000    -6.291000000
O     0.054000000    -0.774000000    -6.323000000
C     0.769000000     0.161000000    -5.667000000
C     2.046000000     0.294000000    -6.169000000
H     2.399000000    -0.416000000    -6.912000000
C     2.926000000     1.213000000    -5.636000000
O     4.314000000     1.224000000    -5.934000000
C     5.195000000     1.337000000    -4.853000000
C     5.203000000     0.471000000    -3.786000000
H     4.345000000    -0.169000000    -3.595000000
C     6.285000000     2.175000000    -5.019000000
H     6.142000000     2.901000000    -5.816000000
C     7.340000000     2.199000000    -4.164000000
H     8.059000000     3.011000000    -4.222000000
C     7.450000000     1.216000000    -3.171000000
H     8.271000000     1.134000000    -2.464000000
C     6.338000000     0.350000000    -3.010000000
O     6.261000000    -0.588000000    -2.014000000
C     5.700000000    -0.394000000    -0.773000000
C     5.908000000    -1.386000000     0.160000000
H     6.545000000    -2.214000000    -0.140000000
C     5.363000000    -1.232000000     1.493000000
O     5.675000000    -2.269000000     2.340000000
C     5.017000000    -2.418000000     3.553000000
C     5.469000000    -1.896000000     4.726000000
H     6.370000000    -1.292000000     4.648000000
C     4.865000000    -2.189000000     5.938000000
H     5.186000000    -1.597000000     6.791000000
C     3.769000000    -3.003000000     6.026000000
H     3.329000000    -3.286000000     6.980000000
C     3.340000000    -3.545000000     4.852000000
C     3.991000000    -3.316000000     3.674000000
H     3.644000000    -3.823000000     2.778000000
C     1.423000000    -2.907000000     0.086000000
H     1.464000000    -3.756000000     0.764000000
C     0.698000000    -1.778000000     0.385000000
H     0.175000000    -1.854000000     1.335000000
C     0.726000000    -0.640000000    -0.444000000
H     0.130000000     0.238000000    -0.204000000
C     1.594000000    -0.673000000    -1.521000000
H     1.689000000     0.148000000    -2.227000000
C     2.276000000    -1.824000000    -1.916000000
H     2.958000000    -1.845000000    -2.762000000
C     2.252000000    -2.942000000    -1.064000000
C     2.977000000    -4.224000000    -1.276000000
O     3.076000000    -4.487000000    -2.426000000
O     3.225000000    -5.056000000    -0.353000000
O     0.816000000    -6.552000000     0.642000000
H     1.128000000    -5.656000000     0.520000000
H     1.491000000    -6.971000000     1.176000000
O     2.165000000    -6.652000000    -4.114000000
H     2.142000000    -5.860000000    -3.577000000
H     1.373000000    -7.129000000    -3.868000000
O     0.128000000    -5.210000000    -6.405000000
H     0.957000000    -5.175000000    -6.880000000
H     0.379000000    -5.315000000    -5.488000000
O     5.533000000    -9.267000000    -0.906000000
H     6.170000000    -8.552000000    -0.914000000
H     4.737000000    -8.882000000    -1.274000000
O     5.260000000    -6.515000000     0.636000000
H     6.021000000    -6.448000000     0.060000000
H     4.626000000    -5.899000000     0.267000000
O     4.335000000    -3.441000000    -4.609000000
H     3.665000000    -3.807000000    -4.030000000
H     3.889000000    -3.327000000    -5.448000000
O     2.150000000    -2.867000000    -6.277000000
H     1.350000000    -2.470000000    -6.621000000
H     1.931000000    -3.103000000    -5.375000000
O     5.249000000    -5.710000000    -3.268000000
H     4.455000000    -5.377000000    -2.850000000
H     5.471000000    -5.050000000    -3.924000000
O    -0.919000000    -3.653000000    -1.922000000
H    -1.744000000    -3.268000000    -1.625000000
H    -0.271000000    -3.348000000    -1.286000000
O     9.276000000    -3.918000000    -0.421000000
H     9.139000000    -4.243000000     0.469000000
H     8.418000000    -3.591000000    -0.691000000
O     7.138000000    -6.842000000    -1.449000000
H     8.086000000    -6.840000000    -1.584000000
H     6.780000000    -6.483000000    -2.261000000
O     3.370000000    -7.802000000    -1.775000000
H     3.230000000    -7.427000000    -2.645000000
H     3.510000000    -7.044000000    -1.208000000
O     2.081000000   -10.461000000    -1.665000000
H     2.239000000    -9.534000000    -1.489000000
H     2.443000000   -10.915000000    -0.904000000
O     6.977000000    -2.942000000    -4.849000000
H     7.151000000    -2.195000000    -5.422000000
H     6.080000000    -2.807000000    -4.546000000
O    -1.365000000    -7.273000000    -0.973000000
H    -0.644000000    -7.010000000    -0.402000000
H    -0.957000000    -7.397000000    -1.831000000
O     3.274000000    -7.538000000     2.145000000
H     3.374000000    -7.469000000     3.095000000
H     4.034000000    -7.076000000     1.791000000
O     4.164000000    -6.370000000    -6.132000000
H     3.739000000    -6.366000000    -5.274000000
H     4.633000000    -7.204000000    -6.162000000
O     8.642000000    -4.322000000    -3.348000000
H     7.939000000    -3.867000000    -3.811000000
H     9.243000000    -3.626000000    -3.084000000
O     0.935000000    -3.925000000    -4.024000000
H     1.608000000    -4.178000000    -3.392000000
H     0.175000000    -3.700000000    -3.488000000
