215
-1468.13334
C     4.041000000    -0.857000000    -1.864000000
H     4.418000000     0.103000000    -1.520000000
C     3.021000000    -0.900000000    -2.816000000
C     2.587000000    -2.109000000    -3.323000000
H     1.820000000    -2.067000000    -4.093000000
C     2.320000000     0.341000000    -3.134000000
O     3.211000000     1.575000000    -3.141000000
H     1.560000000     0.528000000    -2.361000000
O     1.674000000     0.327000000    -4.457000000
C     0.377000000     0.772000000    -4.463000000
C    -0.629000000    -0.119000000    -4.562000000
H    -0.381000000    -1.174000000    -4.639000000
C    -1.925000000     0.292000000    -4.302000000
O    -2.881000000    -0.699000000    -4.102000000
C    -2.274000000     1.569000000    -4.079000000
C    -3.650000000     1.975000000    -3.617000000
H    -3.794000000     3.036000000    -3.831000000
C    -3.944000000     1.771000000    -2.071000000
C    -3.933000000     2.888000000    -1.232000000
H    -3.698000000     3.813000000    -1.753000000
H    -4.397000000     1.338000000    -4.095000000
C    -1.255000000     2.486000000    -3.999000000
H    -1.415000000     3.515000000    -3.688000000
C     0.047000000     2.164000000    -4.267000000
C     1.069000000     3.223000000    -4.271000000
H     0.543000000     4.102000000    -4.648000000
H     1.889000000     2.979000000    -4.950000000
C     1.678000000     3.464000000    -2.846000000
C     1.124000000     4.388000000    -1.985000000
H     0.313000000     5.005000000    -2.363000000
C     2.720000000     2.639000000    -2.388000000
C     3.281000000     2.885000000    -1.149000000
H     4.140000000     2.322000000    -0.794000000
C     2.709000000     3.845000000    -0.294000000
O     3.145000000     3.863000000     1.047000000
C     2.431000000     3.177000000     1.985000000
C     3.367000000     2.374000000     2.901000000
C     2.866000000     1.732000000     4.068000000
H     1.802000000     1.799000000     4.280000000
C     4.705000000     2.199000000     2.525000000
H     5.126000000     2.624000000     1.617000000
O     1.533000000     4.089000000     2.713000000
H     1.784000000     2.430000000     1.505000000
C     1.591000000     4.556000000    -0.735000000
C     0.867000000     5.477000000     0.236000000
H     0.368000000     6.167000000    -0.447000000
H     1.497000000     5.996000000     0.962000000
C    -0.173000000     4.763000000     1.146000000
C    -1.537000000     4.674000000     0.773000000
H    -1.831000000     5.323000000    -0.047000000
C     0.228000000     4.019000000     2.270000000
C    -0.669000000     3.197000000     2.978000000
H    -0.282000000     2.727000000     3.879000000
C    -1.979000000     3.136000000     2.582000000
O    -2.787000000     2.280000000     3.235000000
C    -3.048000000     1.038000000     2.580000000
C    -2.850000000    -0.060000000     3.511000000
C    -2.150000000     0.042000000     4.718000000
H    -1.963000000     1.059000000     5.052000000
C    -3.148000000    -1.328000000     3.023000000
H    -3.576000000    -1.357000000     2.025000000
O    -4.373000000     1.146000000     2.000000000
H    -2.345000000     1.108000000     1.737000000
C    -2.469000000     3.941000000     1.495000000
C    -3.888000000     3.969000000     1.009000000
H    -4.238000000     4.814000000     0.413000000
H    -4.459000000     3.876000000     1.935000000
C    -4.137000000     2.761000000     0.155000000
C    -4.510000000     1.460000000     0.653000000
C    -4.617000000     0.409000000    -0.207000000
H    -4.931000000    -0.524000000     0.253000000
C    -4.243000000     0.495000000    -1.564000000
O    -4.175000000    -0.765000000    -2.270000000
C    -2.981000000    -1.265000000    -2.819000000
H    -2.086000000    -1.054000000    -2.215000000
C    -3.121000000    -2.813000000    -2.810000000
C    -2.461000000    -3.554000000    -3.784000000
H    -1.861000000    -3.021000000    -4.516000000
C    -3.822000000    -3.479000000    -1.769000000
H    -4.314000000    -2.860000000    -1.022000000
C    -3.987000000    -4.824000000    -1.810000000
O    -4.815000000    -5.387000000    -0.913000000
C    -3.301000000    -5.560000000    -2.763000000
H    -3.412000000    -6.641000000    -2.725000000
C    -2.479000000    -4.931000000    -3.724000000
O    -1.768000000    -5.735000000    -4.675000000
C    -0.508000000    -5.251000000    -5.060000000
C     0.512000000    -5.192000000    -4.106000000
H     0.348000000    -5.468000000    -3.067000000
C    -0.270000000    -4.761000000    -6.356000000
H    -1.134000000    -4.660000000    -7.008000000
C     1.008000000    -4.241000000    -6.701000000
H     1.301000000    -3.868000000    -7.679000000
C     2.009000000    -4.188000000    -5.766000000
H     2.977000000    -3.733000000    -5.959000000
C     1.710000000    -4.653000000    -4.450000000
O     2.749000000    -4.506000000    -3.487000000
C     3.161000000    -3.305000000    -2.953000000
C     4.226000000    -3.269000000    -2.029000000
H     4.548000000    -4.241000000    -1.664000000
C     4.681000000    -2.034000000    -1.531000000
O     5.614000000    -1.983000000    -0.463000000
C     6.350000000    -0.853000000    -0.178000000
C     6.410000000    -0.489000000     1.178000000
H     5.902000000    -1.107000000     1.913000000
C     7.036000000    -0.064000000    -1.124000000
H     7.036000000    -0.295000000    -2.186000000
C     7.641000000     1.146000000    -0.716000000
H     8.146000000     1.711000000    -1.496000000
C     7.664000000     1.465000000     0.664000000
H     8.177000000     2.326000000     1.085000000
C     6.992000000     0.674000000     1.581000000
O     6.876000000     1.101000000     2.878000000
C     5.548000000     1.345000000     3.256000000
C     5.091000000     0.730000000     4.410000000
H     5.756000000     0.016000000     4.888000000
C     3.772000000     0.979000000     4.844000000
O     3.283000000     0.177000000     5.902000000
C     2.050000000     0.446000000     6.481000000
C     0.991000000    -0.455000000     6.402000000
H     1.047000000    -1.260000000     5.674000000
C     1.933000000     1.586000000     7.214000000
H     2.791000000     2.253000000     7.195000000
C     0.785000000     1.766000000     7.945000000
H     0.752000000     2.681000000     8.530000000
C    -0.338000000     0.920000000     7.861000000
H    -1.152000000     1.111000000     8.555000000
C    -0.228000000    -0.168000000     7.041000000
O    -1.312000000    -0.984000000     6.759000000
C    -1.889000000    -1.103000000     5.480000000
C    -2.289000000    -2.356000000     5.026000000
H    -2.171000000    -3.225000000     5.668000000
C    -2.878000000    -2.432000000     3.756000000
O    -3.263000000    -3.630000000     3.268000000
C    -4.335000000    -3.888000000     2.357000000
C    -5.661000000    -3.506000000     2.615000000
H    -5.884000000    -2.986000000     3.543000000
C    -6.701000000    -3.841000000     1.754000000
H    -7.740000000    -3.697000000     2.038000000
C    -6.437000000    -4.519000000     0.581000000
H    -7.222000000    -4.685000000    -0.152000000
C    -5.114000000    -4.916000000     0.288000000
C    -4.100000000    -4.645000000     1.223000000
H    -3.098000000    -4.895000000     0.884000000
C     1.659000000    -1.378000000     1.051000000
H     2.699000000    -1.491000000     1.344000000
C     1.278000000    -0.152000000     0.523000000
H     1.986000000     0.630000000     0.263000000
C    -0.075000000     0.031000000     0.321000000
H    -0.446000000     0.949000000    -0.029000000
C    -0.986000000    -0.988000000     0.596000000
H    -2.057000000    -0.916000000     0.427000000
C    -0.516000000    -2.235000000     0.955000000
H    -1.312000000    -2.951000000     1.145000000
C     0.773000000    -2.407000000     1.331000000
C     1.225000000    -3.764000000     1.857000000
O     0.440000000    -4.668000000     1.977000000
O     2.376000000    -3.985000000     2.229000000
O     0.982000000    -7.152000000     2.750000000
H     0.802000000    -6.343000000     2.271000000
H     0.860000000    -6.918000000     3.670000000
O     4.321000000    -6.903000000     3.690000000
H     3.548000000    -6.435000000     4.007000000
H     4.110000000    -7.828000000     3.818000000
O     6.995000000    -6.216000000     4.059000000
H     6.080000000    -6.320000000     3.798000000
H     7.496000000    -6.486000000     3.289000000
O    -0.031000000    -6.490000000     6.707000000
H     0.200000000    -5.586000000     6.918000000
H    -0.368000000    -6.448000000     5.812000000
O    -0.486000000    -5.617000000    -0.341000000
H    -0.109000000    -5.036000000     0.319000000
H    -1.157000000    -6.112000000     0.129000000
O    -2.716000000    -7.445000000     0.579000000
H    -2.349000000    -8.310000000     0.760000000
H    -3.494000000    -7.393000000     1.134000000
O     2.403000000    -5.275000000     4.834000000
H     2.508000000    -4.746000000     4.044000000
H     2.604000000    -4.675000000     5.553000000
O     5.745000000    -3.612000000     1.763000000
H     5.474000000    -3.185000000     0.950000000
H     4.942000000    -3.673000000     2.280000000
O     1.004000000    -7.808000000    -1.195000000
H     0.355000000    -8.088000000    -1.840000000
H     0.613000000    -7.039000000    -0.781000000
O     3.925000000    -2.263000000     3.771000000
H     3.097000000    -2.633000000     3.464000000
H     3.667000000    -1.525000000     4.323000000
O    -1.381000000    -5.866000000     3.655000000
H    -1.953000000    -6.218000000     2.973000000
H    -0.748000000    -5.326000000     3.182000000
O     2.222000000    -9.045000000     0.719000000
H     1.703000000    -8.565000000     0.073000000
H     2.514000000    -8.376000000     1.337000000
O    -0.054000000    -3.823000000     7.676000000
H    -0.328000000    -3.010000000     7.251000000
H     0.887000000    -3.717000000     7.812000000
O    -0.175000000    -9.831000000     3.160000000
H     0.383000000    -9.066000000     3.019000000
H     0.364000000   -10.574000000     2.887000000
O     7.777000000    -3.744000000     3.544000000
H     7.610000000    -4.614000000     3.905000000
H     7.183000000    -3.675000000     2.797000000
O     3.853000000    -5.872000000     0.935000000
H     3.053000000    -5.458000000     1.258000000
H     4.226000000    -6.304000000     1.703000000
O     6.575000000    -5.266000000    -0.607000000
H     7.040000000    -6.001000000    -0.207000000
H     5.774000000    -5.180000000    -0.090000000
O     3.773000000    -7.573000000    -1.637000000
H     2.816000000    -7.591000000    -1.660000000
H     3.984000000    -7.020000000    -0.885000000
O    -3.405000000    -6.247000000     5.758000000
H    -4.335000000    -6.380000000     5.577000000
H    -3.011000000    -6.113000000     4.896000000
