215
-1454.07021
C     4.274000000     0.737000000    -2.681000000
H     4.652000000     1.665000000    -2.260000000
C     3.002000000     0.635000000    -3.271000000
C     2.601000000    -0.648000000    -3.824000000
H     1.596000000    -0.765000000    -4.221000000
C     1.994000000     1.774000000    -3.216000000
O     2.657000000     3.037000000    -3.077000000
H     1.395000000     1.615000000    -2.308000000
O     1.150000000     1.760000000    -4.376000000
C    -0.185000000     1.904000000    -4.128000000
C    -1.017000000     0.746000000    -4.252000000
H    -0.586000000    -0.183000000    -4.617000000
C    -2.418000000     0.803000000    -3.886000000
O    -3.253000000    -0.254000000    -4.055000000
C    -2.911000000     2.029000000    -3.358000000
C    -4.383000000     2.190000000    -2.885000000
H    -4.630000000     3.253000000    -2.844000000
C    -4.555000000     1.628000000    -1.472000000
C    -4.438000000     2.493000000    -0.431000000
H    -4.520000000     3.568000000    -0.570000000
H    -5.076000000     1.721000000    -3.586000000
C    -2.062000000     3.089000000    -3.247000000
H    -2.514000000     4.028000000    -2.938000000
C    -0.729000000     3.115000000    -3.635000000
C     0.077000000     4.381000000    -3.460000000
H    -0.534000000     5.285000000    -3.435000000
H     0.796000000     4.539000000    -4.266000000
C     0.862000000     4.308000000    -2.173000000
C     0.263000000     4.882000000    -1.042000000
H    -0.710000000     5.360000000    -1.117000000
C     2.142000000     3.754000000    -2.064000000
C     2.806000000     3.758000000    -0.839000000
H     3.739000000     3.243000000    -0.623000000
C     2.192000000     4.253000000     0.296000000
O     2.726000000     4.000000000     1.516000000
C     2.209000000     2.954000000     2.336000000
C     3.370000000     2.090000000     2.814000000
C     3.171000000     1.351000000     4.011000000
H     2.241000000     1.469000000     4.562000000
C     4.675000000     1.964000000     2.212000000
H     4.925000000     2.576000000     1.349000000
O     1.356000000     3.516000000     3.347000000
H     1.489000000     2.322000000     1.796000000
C     0.903000000     4.890000000     0.153000000
C     0.171000000     5.422000000     1.421000000
H    -0.343000000     6.360000000     1.201000000
H     0.954000000     5.836000000     2.061000000
C    -0.702000000     4.448000000     2.157000000
C    -2.038000000     4.248000000     1.883000000
H    -2.444000000     4.833000000     1.061000000
C    -0.067000000     3.598000000     3.079000000
C    -0.749000000     2.515000000     3.588000000
H    -0.270000000     1.755000000     4.200000000
C    -2.068000000     2.316000000     3.296000000
O    -2.701000000     1.136000000     3.820000000
C    -3.056000000     0.127000000     2.789000000
C    -2.584000000    -1.252000000     3.324000000
C    -1.460000000    -1.339000000     4.133000000
H    -0.980000000    -0.413000000     4.439000000
C    -3.214000000    -2.425000000     2.919000000
H    -4.132000000    -2.308000000     2.349000000
O    -4.436000000     0.081000000     2.351000000
H    -2.404000000     0.443000000     1.961000000
C    -2.719000000     3.207000000     2.479000000
C    -4.204000000     2.969000000     2.038000000
H    -4.483000000     3.995000000     1.792000000
H    -4.813000000     2.598000000     2.865000000
C    -4.455000000     2.040000000     0.859000000
C    -4.558000000     0.667000000     1.093000000
C    -4.855000000    -0.229000000     0.082000000
H    -4.888000000    -1.300000000     0.267000000
C    -4.757000000     0.268000000    -1.200000000
O    -4.806000000    -0.652000000    -2.260000000
C    -3.551000000    -1.013000000    -2.857000000
H    -2.765000000    -0.825000000    -2.110000000
C    -3.399000000    -2.501000000    -3.069000000
C    -2.470000000    -2.999000000    -3.962000000
H    -2.038000000    -2.274000000    -4.648000000
C    -4.063000000    -3.438000000    -2.259000000
H    -4.910000000    -3.101000000    -1.665000000
C    -3.752000000    -4.799000000    -2.273000000
O    -4.481000000    -5.708000000    -1.582000000
C    -2.831000000    -5.280000000    -3.208000000
H    -2.611000000    -6.344000000    -3.171000000
C    -2.200000000    -4.371000000    -3.982000000
O    -1.363000000    -4.843000000    -4.935000000
C    -0.202000000    -4.149000000    -5.319000000
C     0.920000000    -3.993000000    -4.487000000
H     0.864000000    -4.441000000    -3.498000000
C    -0.077000000    -3.868000000    -6.706000000
H    -0.858000000    -4.130000000    -7.414000000
C     1.143000000    -3.384000000    -7.157000000
H     1.278000000    -3.108000000    -8.199000000
C     2.207000000    -3.081000000    -6.288000000
H     3.034000000    -2.530000000    -6.729000000
C     2.064000000    -3.379000000    -4.930000000
O     3.067000000    -3.091000000    -4.064000000
C     3.389000000    -1.781000000    -3.649000000
C     4.681000000    -1.631000000    -3.136000000
H     5.323000000    -2.499000000    -3.010000000
C     5.076000000    -0.373000000    -2.676000000
O     6.384000000    -0.360000000    -2.356000000
C     6.974000000     0.359000000    -1.365000000
C     6.559000000     0.372000000    -0.011000000
H     5.638000000    -0.114000000     0.299000000
C     8.128000000     1.034000000    -1.590000000
H     8.359000000     1.216000000    -2.637000000
C     8.962000000     1.594000000    -0.593000000
H     9.865000000     2.170000000    -0.783000000
C     8.586000000     1.513000000     0.760000000
H     9.257000000     1.763000000     1.577000000
C     7.369000000     0.937000000     1.005000000
O     6.957000000     1.005000000     2.295000000
C     5.613000000     1.132000000     2.783000000
C     5.392000000     0.460000000     4.001000000
H     6.124000000    -0.207000000     4.449000000
C     4.166000000     0.593000000     4.684000000
O     3.960000000    -0.086000000     5.835000000
C     2.697000000    -0.368000000     6.332000000
C     1.917000000    -1.358000000     5.809000000
H     2.302000000    -1.793000000     4.891000000
C     2.238000000     0.299000000     7.487000000
H     2.976000000     0.914000000     7.996000000
C     0.997000000    -0.062000000     8.070000000
H     0.726000000     0.397000000     9.017000000
C     0.222000000    -0.978000000     7.419000000
H    -0.757000000    -1.256000000     7.802000000
C     0.592000000    -1.597000000     6.231000000
O    -0.158000000    -2.619000000     5.705000000
C    -1.078000000    -2.564000000     4.691000000
C    -1.636000000    -3.732000000     4.275000000
H    -1.329000000    -4.662000000     4.747000000
C    -2.760000000    -3.680000000     3.440000000
O    -3.376000000    -4.836000000     3.056000000
C    -4.293000000    -5.090000000     2.062000000
C    -5.617000000    -5.036000000     2.378000000
H    -5.912000000    -4.766000000     3.389000000
C    -6.615000000    -5.172000000     1.415000000
H    -7.640000000    -4.998000000     1.734000000
C    -6.246000000    -5.522000000     0.073000000
H    -7.019000000    -5.734000000    -0.662000000
C    -4.873000000    -5.524000000    -0.268000000
C    -3.919000000    -5.277000000     0.743000000
H    -2.859000000    -5.251000000     0.504000000
C     2.258000000    -1.642000000    -0.601000000
H     3.327000000    -1.800000000    -0.489000000
C     1.667000000    -0.424000000    -0.401000000
H     2.207000000     0.489000000    -0.167000000
C     0.245000000    -0.283000000    -0.617000000
H    -0.290000000     0.610000000    -0.598000000
C    -0.458000000    -1.480000000    -0.683000000
H    -1.503000000    -1.478000000    -0.383000000
C     0.150000000    -2.718000000    -0.871000000
H    -0.418000000    -3.614000000    -0.632000000
C     1.530000000    -2.811000000    -0.819000000
C     2.208000000    -4.185000000    -0.723000000
O     1.563000000    -5.148000000    -1.071000000
O     3.281000000    -4.279000000    -0.138000000
O    -1.633000000    -7.186000000    -0.628000000
H    -0.863000000    -7.679000000    -0.913000000
H    -1.278000000    -6.474000000    -0.096000000
O     2.782000000    -6.739000000     1.381000000
H     3.481000000    -7.352000000     1.154000000
H     2.746000000    -6.133000000     0.641000000
O    -0.330000000    -5.336000000     1.300000000
H     0.450000000    -5.511000000     0.773000000
H    -0.006000000    -4.838000000     2.050000000
O     1.782000000    -1.007000000     2.357000000
H     1.610000000    -1.128000000     1.423000000
H     2.736000000    -1.046000000     2.432000000
O     4.578000000    -9.404000000    -2.274000000
H     4.205000000    -9.611000000    -3.130000000
H     4.388000000    -8.474000000    -2.148000000
O     2.022000000    -5.117000000     4.566000000
H     2.843000000    -4.667000000     4.765000000
H     1.754000000    -4.763000000     3.718000000
O     0.434000000    -7.780000000     2.495000000
H     1.332000000    -7.656000000     2.188000000
H    -0.027000000    -6.990000000     2.214000000
O     6.924000000    -5.729000000     1.644000000
H     6.357000000    -5.010000000     1.924000000
H     7.386000000    -5.994000000     2.439000000
O     5.612000000    -4.698000000    -1.708000000
H     6.365000000    -4.108000000    -1.681000000
H     5.009000000    -4.348000000    -1.052000000
O     3.992000000    -2.607000000     2.084000000
H     4.942000000    -2.684000000     2.174000000
H     3.795000000    -3.035000000     1.251000000
O     0.693000000    -6.894000000    -2.774000000
H     1.047000000    -6.166000000    -2.263000000
H     0.683000000    -7.632000000    -2.165000000
O     5.268000000    -7.615000000     0.349000000
H     4.906000000    -7.248000000    -0.457000000
H     5.791000000    -6.905000000     0.722000000
O     1.414000000    -3.844000000     2.425000000
H     1.233000000    -3.002000000     2.843000000
H     1.832000000    -3.615000000     1.595000000
O     3.884000000    -6.692000000    -2.011000000
H     3.169000000    -6.094000000    -1.793000000
H     4.634000000    -6.120000000    -2.173000000
O     1.843000000    -6.664000000    -5.444000000
H     2.091000000    -5.740000000    -5.411000000
H     1.308000000    -6.797000000    -4.662000000
O     4.216000000    -3.403000000     4.853000000
H     5.153000000    -3.325000000     4.674000000
H     3.793000000    -3.160000000     4.029000000
O     5.884000000    -4.231000000    -5.615000000
H     6.268000000    -4.499000000    -4.780000000
H     5.621000000    -5.051000000    -6.032000000
O     6.862000000    -2.838000000     1.197000000
H     7.239000000    -2.837000000     0.317000000
H     7.495000000    -2.356000000     1.728000000
O     0.479000000    -8.980000000    -1.120000000
H     0.652000000    -9.314000000    -0.239000000
H     0.336000000    -9.764000000    -1.650000000
