215
-1461.28759
C    -4.585000000    -1.833000000    -1.980000000
H    -4.142000000    -1.084000000    -2.632000000
C    -4.785000000    -1.574000000    -0.625000000
C    -5.093000000    -2.631000000     0.276000000
H    -5.283000000    -2.420000000     1.326000000
C    -4.474000000    -0.169000000    -0.121000000
O    -4.807000000     0.864000000    -1.117000000
H    -3.396000000    -0.107000000     0.092000000
O    -5.155000000     0.036000000     1.150000000
C    -4.437000000     0.632000000     2.165000000
C    -3.629000000    -0.167000000     2.946000000
H    -3.716000000    -1.249000000     3.009000000
C    -2.667000000     0.388000000     3.782000000
O    -1.866000000    -0.428000000     4.545000000
C    -2.457000000     1.797000000     3.770000000
C    -1.423000000     2.415000000     4.676000000
H    -1.740000000     3.451000000     4.809000000
C     0.006000000     2.439000000     4.131000000
C     0.461000000     3.605000000     3.557000000
H    -0.142000000     4.509000000     3.561000000
H    -1.535000000     1.955000000     5.660000000
C    -3.233000000     2.574000000     2.911000000
H    -2.877000000     3.599000000     2.859000000
C    -4.218000000     1.994000000     2.112000000
C    -4.899000000     2.833000000     1.065000000
H    -4.926000000     3.805000000     1.561000000
H    -5.892000000     2.474000000     0.785000000
C    -3.972000000     3.000000000    -0.178000000
C    -3.036000000     3.988000000    -0.324000000
H    -2.961000000     4.763000000     0.434000000
C    -4.052000000     2.038000000    -1.199000000
C    -3.267000000     2.206000000    -2.356000000
H    -3.510000000     1.524000000    -3.167000000
C    -2.399000000     3.222000000    -2.530000000
O    -1.660000000     3.232000000    -3.651000000
C    -0.288000000     2.780000000    -3.342000000
C     0.243000000     1.790000000    -4.383000000
C     1.592000000     1.747000000    -4.743000000
H     2.344000000     2.417000000    -4.333000000
C    -0.638000000     0.824000000    -4.834000000
H    -1.696000000     0.851000000    -4.588000000
O     0.563000000     3.947000000    -3.266000000
H    -0.387000000     2.263000000    -2.376000000
C    -2.292000000     4.158000000    -1.468000000
C    -1.304000000     5.352000000    -1.531000000
H    -1.583000000     6.088000000    -0.774000000
H    -1.390000000     5.764000000    -2.538000000
C     0.085000000     4.824000000    -1.077000000
C     0.456000000     4.872000000     0.249000000
H    -0.271000000     5.099000000     1.024000000
C     1.009000000     4.339000000    -2.041000000
C     2.213000000     3.832000000    -1.640000000
H     2.847000000     3.341000000    -2.374000000
C     2.553000000     3.881000000    -0.282000000
O     3.738000000     3.334000000     0.160000000
C     3.679000000     2.142000000     0.930000000
C     4.708000000     1.073000000     0.462000000
C     5.262000000     1.223000000    -0.820000000
H     5.044000000     2.009000000    -1.538000000
C     4.904000000    -0.121000000     1.174000000
H     4.368000000    -0.344000000     2.093000000
O     3.743000000     2.355000000     2.389000000
H     2.707000000     1.756000000     0.589000000
C     1.702000000     4.491000000     0.681000000
C     2.269000000     4.713000000     2.089000000
H     1.785000000     5.616000000     2.466000000
H     3.355000000     4.822000000     2.125000000
C     1.731000000     3.597000000     2.956000000
C     2.509000000     2.469000000     3.089000000
C     2.145000000     1.431000000     3.913000000
H     2.663000000     0.482000000     4.024000000
C     0.842000000     1.351000000     4.343000000
O     0.351000000     0.201000000     4.897000000
C    -0.509000000    -0.657000000     4.098000000
H    -0.536000000    -0.486000000     3.012000000
C    -0.020000000    -2.109000000     4.171000000
C    -0.926000000    -3.131000000     3.834000000
H    -1.976000000    -2.939000000     3.625000000
C     1.345000000    -2.522000000     4.326000000
H     2.040000000    -1.690000000     4.402000000
C     1.672000000    -3.851000000     4.344000000
O     3.032000000    -4.219000000     4.600000000
C     0.807000000    -4.849000000     3.941000000
H     1.184000000    -5.861000000     3.817000000
C    -0.517000000    -4.459000000     3.704000000
O    -1.284000000    -5.488000000     3.217000000
C    -2.623000000    -5.374000000     3.155000000
C    -3.261000000    -5.246000000     1.954000000
H    -2.725000000    -5.230000000     1.008000000
C    -3.291000000    -5.546000000     4.363000000
H    -2.711000000    -5.678000000     5.273000000
C    -4.725000000    -5.493000000     4.312000000
H    -5.300000000    -5.592000000     5.229000000
C    -5.440000000    -5.257000000     3.119000000
H    -6.520000000    -5.143000000     3.159000000
C    -4.645000000    -5.068000000     1.969000000
O    -5.339000000    -4.959000000     0.777000000
C    -5.164000000    -3.939000000    -0.162000000
C    -4.989000000    -4.178000000    -1.542000000
H    -4.985000000    -5.228000000    -1.823000000
C    -4.714000000    -3.149000000    -2.445000000
O    -4.306000000    -3.597000000    -3.707000000
C    -3.956000000    -2.691000000    -4.682000000
C    -2.631000000    -2.314000000    -4.814000000
H    -1.883000000    -2.614000000    -4.085000000
C    -4.945000000    -2.295000000    -5.614000000
H    -5.943000000    -2.718000000    -5.525000000
C    -4.570000000    -1.512000000    -6.720000000
H    -5.300000000    -1.175000000    -7.451000000
C    -3.198000000    -1.050000000    -6.811000000
H    -2.855000000    -0.457000000    -7.655000000
C    -2.282000000    -1.551000000    -5.902000000
O    -0.956000000    -1.363000000    -6.078000000
C    -0.186000000    -0.228000000    -5.699000000
C     1.074000000    -0.077000000    -6.181000000
H     1.469000000    -0.843000000    -6.842000000
C     1.994000000     0.806000000    -5.669000000
O     3.342000000     0.804000000    -6.117000000
C     4.474000000     1.152000000    -5.377000000
C     4.944000000     0.350000000    -4.387000000
H     4.366000000    -0.514000000    -4.068000000
C     5.126000000     2.314000000    -5.727000000
H     4.759000000     2.809000000    -6.622000000
C     6.336000000     2.663000000    -5.121000000
H     6.775000000     3.630000000    -5.354000000
C     6.830000000     1.882000000    -4.093000000
H     7.773000000     2.206000000    -3.662000000
C     6.168000000     0.745000000    -3.713000000
O     6.597000000     0.047000000    -2.585000000
C     6.099000000     0.225000000    -1.333000000
C     6.262000000    -0.924000000    -0.611000000
H     6.914000000    -1.696000000    -1.010000000
C     5.656000000    -1.137000000     0.643000000
O     5.963000000    -2.354000000     1.221000000
C     5.643000000    -2.834000000     2.449000000
C     6.785000000    -3.038000000     3.342000000
H     7.808000000    -2.760000000     3.099000000
C     6.500000000    -3.471000000     4.616000000
H     7.341000000    -3.702000000     5.266000000
C     5.235000000    -3.840000000     4.982000000
H     4.989000000    -4.189000000     5.982000000
C     4.184000000    -3.702000000     4.102000000
C     4.373000000    -3.162000000     2.845000000
H     3.506000000    -2.985000000     2.214000000
C    -1.109000000    -2.204000000    -0.831000000
H    -1.858000000    -2.711000000    -1.434000000
C    -1.028000000    -0.829000000    -0.682000000
H    -1.684000000    -0.189000000    -1.266000000
C    -0.133000000    -0.292000000     0.183000000
H    -0.184000000     0.816000000     0.259000000
C     0.812000000    -1.064000000     0.859000000
H     1.577000000    -0.501000000     1.386000000
C     0.747000000    -2.420000000     0.742000000
H     1.436000000    -3.057000000     1.292000000
C    -0.190000000    -2.987000000    -0.094000000
C    -0.173000000    -4.441000000    -0.360000000
O     0.804000000    -5.057000000    -0.010000000
O    -1.110000000    -4.996000000    -0.887000000
O    -3.072000000    -7.102000000    -0.662000000
H    -2.629000000    -6.263000000    -0.787000000
H    -2.557000000    -7.546000000     0.011000000
O     0.126000000    -7.540000000    -2.082000000
H    -0.427000000    -8.319000000    -2.020000000
H    -0.387000000    -6.848000000    -1.665000000
O     3.331000000    -4.841000000     0.160000000
H     3.632000000    -5.109000000     1.028000000
H     2.376000000    -4.892000000     0.212000000
O     4.301000000    -6.036000000     2.309000000
H     4.231000000    -5.828000000     3.241000000
H     4.036000000    -6.953000000     2.248000000
O     4.101000000    -2.732000000    -1.785000000
H     4.096000000    -3.211000000    -0.956000000
H     3.278000000    -2.244000000    -1.785000000
O     1.778000000    -1.397000000    -2.280000000
H     1.389000000    -1.496000000    -3.149000000
H     1.064000000    -1.069000000    -1.734000000
O     6.317000000    -5.307000000     0.023000000
H     5.439000000    -4.931000000     0.071000000
H     6.341000000    -5.755000000    -0.822000000
O    -1.708000000    -8.474000000     1.598000000
H    -1.857000000    -7.911000000     2.358000000
H    -1.710000000    -9.362000000     1.954000000
O    -4.750000000    -7.476000000    -3.075000000
H    -4.780000000    -8.418000000    -3.242000000
H    -4.197000000    -7.388000000    -2.299000000
O     2.510000000    -5.617000000    -2.367000000
H     1.774000000    -6.060000000    -1.946000000
H     2.970000000    -5.183000000    -1.648000000
O     0.775000000    -9.954000000     0.132000000
H    -0.081000000    -9.968000000    -0.295000000
H     0.979000000    -9.024000000     0.230000000
O     2.245000000    -8.199000000    -3.713000000
H     2.020000000    -8.095000000    -4.638000000
H     1.412000000    -8.103000000    -3.252000000
O    -1.838000000    -9.430000000    -1.852000000
H    -2.555000000    -8.819000000    -1.681000000
H    -2.087000000   -10.228000000    -1.387000000
O     3.038000000    -8.618000000     2.465000000
H     2.249000000    -8.203000000     2.117000000
H     2.752000000    -9.033000000     3.278000000
O     0.982000000    -7.420000000     1.287000000
H     0.040000000    -7.562000000     1.388000000
H     1.050000000    -6.586000000     0.824000000
O     1.842000000    -3.283000000    -4.488000000
H     2.363000000    -3.915000000    -3.993000000
H     0.970000000    -3.675000000    -4.534000000
O     4.429000000    -6.651000000    -4.403000000
H     4.468000000    -6.264000000    -3.529000000
H     3.753000000    -7.325000000    -4.337000000
O    -0.457000000    -5.188000000    -3.795000000
H    -0.897000000    -4.843000000    -3.018000000
H     0.035000000    -5.945000000    -3.475000000
O    -0.739000000    -5.470000000    -6.802000000
H    -1.428000000    -5.581000000    -7.458000000
H    -1.193000000    -5.115000000    -6.037000000
