215
-1454.51404
C     5.047000000     1.195000000    -2.508000000
H     5.350000000     1.982000000    -1.822000000
C     3.815000000     1.027000000    -3.185000000
C     3.492000000    -0.224000000    -3.766000000
H     2.578000000    -0.465000000    -4.302000000
C     2.620000000     2.018000000    -3.005000000
O     3.164000000     3.286000000    -2.500000000
H     2.003000000     1.602000000    -2.195000000
O     1.842000000     2.182000000    -4.201000000
C     0.477000000     2.316000000    -4.017000000
C    -0.187000000     1.149000000    -4.184000000
H     0.251000000     0.221000000    -4.545000000
C    -1.610000000     1.158000000    -4.032000000
O    -2.317000000    -0.032000000    -4.273000000
C    -2.257000000     2.335000000    -3.625000000
C    -3.785000000     2.313000000    -3.405000000
H    -4.144000000     3.343000000    -3.451000000
C    -4.102000000     1.749000000    -2.001000000
C    -4.309000000     2.671000000    -0.914000000
H    -4.252000000     3.737000000    -1.120000000
H    -4.277000000     1.769000000    -4.215000000
C    -1.525000000     3.451000000    -3.356000000
H    -1.949000000     4.324000000    -2.866000000
C    -0.127000000     3.467000000    -3.658000000
C     0.708000000     4.659000000    -3.328000000
H     0.167000000     5.596000000    -3.480000000
H     1.546000000     4.779000000    -4.018000000
C     1.210000000     4.554000000    -1.901000000
C     0.459000000     5.061000000    -0.821000000
H    -0.465000000     5.589000000    -1.044000000
C     2.404000000     3.862000000    -1.580000000
C     2.808000000     3.692000000    -0.270000000
H     3.706000000     3.118000000    -0.054000000
C     2.040000000     4.133000000     0.788000000
O     2.430000000     3.698000000     2.054000000
C     1.737000000     2.615000000     2.634000000
C     2.588000000     1.501000000     3.211000000
C     2.043000000     0.544000000     4.061000000
H     1.039000000     0.674000000     4.458000000
C     3.915000000     1.306000000     2.813000000
H     4.444000000     1.914000000     2.083000000
O     0.800000000     3.247000000     3.578000000
H     1.153000000     2.131000000     1.837000000
C     0.886000000     4.825000000     0.535000000
C     0.043000000     5.227000000     1.675000000
H    -0.517000000     6.084000000     1.296000000
H     0.690000000     5.667000000     2.436000000
C    -0.950000000     4.250000000     2.220000000
C    -2.183000000     4.176000000     1.677000000
H    -2.438000000     4.837000000     0.853000000
C    -0.522000000     3.275000000     3.231000000
C    -1.350000000     2.217000000     3.557000000
H    -1.163000000     1.400000000     4.249000000
C    -2.629000000     2.218000000     3.104000000
O    -3.318000000     1.111000000     3.462000000
C    -3.466000000     0.028000000     2.460000000
C    -3.421000000    -1.318000000     3.194000000
C    -2.845000000    -1.552000000     4.486000000
H    -2.303000000    -0.736000000     4.957000000
C    -4.120000000    -2.375000000     2.609000000
H    -4.662000000    -2.183000000     1.687000000
O    -4.686000000     0.309000000     1.830000000
H    -2.605000000     0.095000000     1.780000000
C    -3.094000000     3.244000000     2.172000000
C    -4.462000000     3.192000000     1.604000000
H    -4.643000000     4.237000000     1.342000000
H    -5.248000000     2.905000000     2.306000000
C    -4.556000000     2.281000000     0.372000000
C    -4.603000000     0.899000000     0.578000000
C    -4.480000000     0.025000000    -0.459000000
H    -4.647000000    -1.019000000    -0.206000000
C    -4.218000000     0.407000000    -1.752000000
O    -3.967000000    -0.555000000    -2.717000000
C    -2.567000000    -0.750000000    -3.110000000
H    -1.910000000    -0.380000000    -2.309000000
C    -2.214000000    -2.286000000    -3.184000000
C    -1.205000000    -2.790000000    -3.952000000
H    -0.674000000    -2.164000000    -4.665000000
C    -2.919000000    -3.199000000    -2.389000000
H    -3.720000000    -2.850000000    -1.742000000
C    -2.608000000    -4.572000000    -2.382000000
O    -3.351000000    -5.452000000    -1.708000000
C    -1.691000000    -5.031000000    -3.269000000
H    -1.439000000    -6.084000000    -3.358000000
C    -0.854000000    -4.163000000    -3.948000000
O     0.107000000    -4.768000000    -4.733000000
C     1.135000000    -3.989000000    -5.337000000
C     2.072000000    -3.551000000    -4.489000000
H     2.030000000    -3.831000000    -3.440000000
C     1.171000000    -3.754000000    -6.714000000
H     0.419000000    -4.188000000    -7.368000000
C     2.263000000    -2.931000000    -7.141000000
H     2.312000000    -2.883000000    -8.226000000
C     3.227000000    -2.498000000    -6.301000000
H     4.057000000    -1.910000000    -6.686000000
C     3.103000000    -2.798000000    -4.959000000
O     4.075000000    -2.541000000    -4.055000000
C     4.411000000    -1.249000000    -3.627000000
C     5.661000000    -1.067000000    -3.043000000
H     6.296000000    -1.908000000    -2.773000000
C     5.976000000     0.162000000    -2.504000000
O     7.113000000     0.322000000    -1.799000000
C     7.268000000     0.679000000    -0.432000000
C     6.388000000     0.251000000     0.492000000
H     5.614000000    -0.456000000     0.207000000
C     8.334000000     1.497000000    -0.096000000
H     8.981000000     1.829000000    -0.904000000
C     8.442000000     1.945000000     1.258000000
H     9.214000000     2.667000000     1.512000000
C     7.584000000     1.433000000     2.224000000
H     7.705000000     1.685000000     3.275000000
C     6.587000000     0.552000000     1.828000000
O     5.854000000    -0.108000000     2.769000000
C     4.597000000     0.178000000     3.224000000
C     4.044000000    -0.773000000     4.068000000
H     4.552000000    -1.683000000     4.377000000
C     2.778000000    -0.562000000     4.561000000
O     2.329000000    -1.590000000     5.323000000
C     1.222000000    -1.435000000     6.058000000
C     0.107000000    -2.283000000     5.809000000
H     0.186000000    -2.975000000     4.974000000
C     1.164000000    -0.546000000     7.089000000
H     2.049000000     0.038000000     7.331000000
C     0.015000000    -0.554000000     7.919000000
H     0.044000000     0.097000000     8.790000000
C    -1.104000000    -1.400000000     7.705000000
H    -1.947000000    -1.409000000     8.392000000
C    -1.036000000    -2.326000000     6.631000000
O    -2.122000000    -2.984000000     6.260000000
C    -2.798000000    -2.796000000     5.067000000
C    -3.507000000    -3.854000000     4.457000000
H    -3.628000000    -4.854000000     4.865000000
C    -4.203000000    -3.619000000     3.278000000
O    -4.765000000    -4.791000000     2.757000000
C    -5.074000000    -4.831000000     1.410000000
C    -6.375000000    -4.844000000     0.937000000
H    -7.271000000    -4.932000000     1.547000000
C    -6.600000000    -5.167000000    -0.393000000
H    -7.575000000    -5.339000000    -0.841000000
C    -5.524000000    -5.393000000    -1.237000000
H    -5.587000000    -5.528000000    -2.314000000
C    -4.249000000    -5.243000000    -0.779000000
C    -4.006000000    -5.001000000     0.558000000
H    -2.964000000    -4.864000000     0.838000000
C     1.967000000    -1.678000000    -0.185000000
H     3.051000000    -1.768000000    -0.165000000
C     1.333000000    -0.428000000    -0.096000000
H     1.912000000     0.491000000    -0.059000000
C    -0.051000000    -0.304000000    -0.063000000
H    -0.654000000     0.603000000    -0.025000000
C    -0.770000000    -1.453000000    -0.341000000
H    -1.830000000    -1.293000000    -0.520000000
C    -0.157000000    -2.724000000    -0.431000000
H    -0.764000000    -3.602000000    -0.639000000
C     1.253000000    -2.883000000    -0.278000000
C     1.857000000    -4.176000000    -0.574000000
O     1.125000000    -5.110000000    -0.975000000
O     2.971000000    -4.364000000    -0.205000000
O     3.394000000    -6.914000000     0.938000000
H     3.005000000    -6.109000000     0.597000000
H     2.833000000    -7.613000000     0.602000000
O     1.694000000    -8.241000000     3.513000000
H     1.042000000    -7.584000000     3.270000000
H     1.327000000    -9.069000000     3.202000000
O    -0.956000000    -6.382000000     0.148000000
H    -1.111000000    -7.209000000    -0.309000000
H    -0.193000000    -6.006000000    -0.291000000
O     4.041000000    -4.604000000     4.660000000
H     4.027000000    -5.538000000     4.454000000
H     4.099000000    -4.171000000     3.808000000
O     3.960000000    -6.348000000    -4.084000000
H     4.226000000    -5.783000000    -3.358000000
H     3.196000000    -6.820000000    -3.752000000
O     1.695000000    -6.936000000    -2.704000000
H     1.596000000    -6.077000000    -2.293000000
H     1.063000000    -7.493000000    -2.249000000
O     6.761000000    -6.726000000    -0.721000000
H     6.486000000    -5.881000000    -1.076000000
H     6.014000000    -7.023000000    -0.201000000
O     0.572000000    -7.142000000    -5.933000000
H     0.506000000    -6.750000000    -5.062000000
H     1.473000000    -7.459000000    -5.986000000
O     4.875000000    -4.947000000    -1.857000000
H     4.931000000    -4.054000000    -2.197000000
H     4.157000000    -4.919000000    -1.225000000
O     1.438000000    -9.941000000    -0.016000000
H     1.213000000   -10.060000000     0.906000000
H     0.628000000    -9.637000000    -0.424000000
O     6.387000000    -6.815000000     2.128000000
H     5.561000000    -6.854000000     2.610000000
H     6.356000000    -5.976000000     1.668000000
O     5.963000000    -8.779000000    -3.075000000
H     6.840000000    -8.439000000    -3.251000000
H     5.602000000    -8.182000000    -2.420000000
O     6.250000000    -3.961000000    -5.462000000
H     6.762000000    -4.478000000    -4.840000000
H     5.343000000    -4.077000000    -5.179000000
O     1.515000000    -3.381000000     2.713000000
H     2.416000000    -3.095000000     2.865000000
H     1.173000000    -2.763000000     2.066000000
O    -0.861000000    -8.861000000    -1.693000000
H    -1.168000000    -9.166000000    -2.547000000
H    -1.370000000    -9.368000000    -1.061000000
O     4.036000000    -6.822000000     3.413000000
H     3.675000000    -6.795000000     2.527000000
H     3.670000000    -7.620000000     3.797000000
O    -0.133000000    -6.260000000     2.798000000
H    -0.523000000    -6.124000000     1.935000000
H     0.415000000    -5.487000000     2.938000000
O     4.355000000    -3.661000000     2.017000000
H     5.272000000    -3.482000000     1.807000000
H     4.015000000    -4.108000000     1.242000000
O     7.133000000    -4.136000000     0.999000000
H     7.388000000    -3.503000000     0.328000000
H     7.824000000    -4.076000000     1.660000000
