215
-1435.58696
C    -4.069000000    -1.770000000    -1.846000000
H    -3.514000000    -0.967000000    -2.324000000
C    -4.464000000    -1.426000000    -0.544000000
C    -5.028000000    -2.488000000     0.198000000
H    -5.299000000    -2.291000000     1.232000000
C    -4.170000000    -0.026000000     0.075000000
O    -4.639000000     1.049000000    -0.809000000
H    -3.098000000     0.130000000     0.266000000
O    -4.678000000     0.057000000     1.434000000
C    -3.902000000     0.629000000     2.408000000
C    -3.372000000    -0.183000000     3.363000000
H    -3.497000000    -1.261000000     3.303000000
C    -2.447000000     0.277000000     4.205000000
O    -1.811000000    -0.587000000     5.024000000
C    -2.166000000     1.682000000     4.212000000
C    -1.057000000     2.228000000     5.015000000
H    -1.232000000     3.297000000     5.150000000
C     0.315000000     2.067000000     4.377000000
C     0.857000000     3.175000000     3.715000000
H     0.473000000     4.188000000     3.797000000
H    -0.990000000     1.843000000     6.035000000
C    -2.853000000     2.523000000     3.306000000
H    -2.491000000     3.545000000     3.233000000
C    -3.733000000     2.015000000     2.396000000
C    -4.419000000     3.018000000     1.441000000
H    -4.490000000     3.981000000     1.950000000
H    -5.457000000     2.698000000     1.332000000
C    -3.639000000     3.102000000     0.108000000
C    -2.640000000     4.098000000    -0.031000000
H    -2.392000000     4.695000000     0.842000000
C    -3.835000000     2.203000000    -0.941000000
C    -3.170000000     2.344000000    -2.112000000
H    -3.420000000     1.676000000    -2.932000000
C    -2.242000000     3.403000000    -2.295000000
O    -1.449000000     3.327000000    -3.437000000
C    -0.107000000     2.862000000    -3.316000000
C     0.394000000     1.941000000    -4.471000000
C     1.672000000     2.031000000    -4.949000000
H     2.410000000     2.674000000    -4.476000000
C    -0.510000000     0.960000000    -4.968000000
H    -1.511000000     0.825000000    -4.566000000
O     0.874000000     3.957000000    -3.094000000
H    -0.108000000     2.233000000    -2.413000000
C    -1.944000000     4.236000000    -1.214000000
C    -0.871000000     5.244000000    -1.350000000
H    -1.125000000     6.197000000    -0.881000000
H    -0.758000000     5.593000000    -2.378000000
C     0.575000000     4.817000000    -0.924000000
C     0.921000000     4.807000000     0.437000000
H     0.233000000     5.294000000     1.124000000
C     1.336000000     4.137000000    -1.852000000
C     2.488000000     3.566000000    -1.421000000
H     3.094000000     2.953000000    -2.083000000
C     2.918000000     3.635000000    -0.051000000
O     4.062000000     2.992000000     0.284000000
C     3.796000000     1.658000000     0.902000000
C     4.617000000     0.562000000     0.255000000
C     5.150000000     0.728000000    -1.017000000
H     5.212000000     1.729000000    -1.436000000
C     4.564000000    -0.695000000     0.832000000
H     4.073000000    -0.774000000     1.798000000
O     3.946000000     1.744000000     2.299000000
H     2.760000000     1.440000000     0.603000000
C     2.123000000     4.284000000     0.831000000
C     2.531000000     4.310000000     2.316000000
H     2.151000000     5.213000000     2.798000000
H     3.606000000     4.424000000     2.466000000
C     2.057000000     3.084000000     3.049000000
C     2.753000000     1.875000000     2.993000000
C     2.209000000     0.788000000     3.633000000
H     2.775000000    -0.139000000     3.599000000
C     1.002000000     0.843000000     4.377000000
O     0.576000000    -0.279000000     4.976000000
C    -0.573000000    -0.993000000     4.422000000
H    -0.583000000    -0.577000000     3.404000000
C    -0.269000000    -2.501000000     4.367000000
C    -1.283000000    -3.355000000     3.858000000
H    -2.306000000    -3.005000000     3.747000000
C     1.054000000    -2.993000000     4.444000000
H     1.796000000    -2.348000000     4.909000000
C     1.329000000    -4.350000000     4.162000000
O     2.598000000    -4.791000000     4.412000000
C     0.292000000    -5.120000000     3.644000000
H     0.572000000    -6.092000000     3.244000000
C    -0.963000000    -4.616000000     3.361000000
O    -1.828000000    -5.466000000     2.748000000
C    -3.190000000    -5.310000000     2.755000000
C    -3.958000000    -5.366000000     1.623000000
H    -3.481000000    -5.482000000     0.653000000
C    -3.896000000    -5.233000000     3.956000000
H    -3.310000000    -5.334000000     4.867000000
C    -5.282000000    -5.103000000     4.030000000
H    -5.719000000    -5.105000000     5.026000000
C    -6.012000000    -4.890000000     2.851000000
H    -7.065000000    -4.635000000     2.937000000
C    -5.325000000    -5.069000000     1.628000000
O    -5.892000000    -4.703000000     0.432000000
C    -5.314000000    -3.718000000    -0.368000000
C    -5.091000000    -3.914000000    -1.696000000
H    -5.048000000    -4.926000000    -2.092000000
C    -4.427000000    -2.983000000    -2.467000000
O    -4.115000000    -3.239000000    -3.798000000
C    -3.792000000    -2.233000000    -4.760000000
C    -2.459000000    -2.056000000    -5.181000000
H    -1.666000000    -2.663000000    -4.752000000
C    -4.827000000    -1.411000000    -5.113000000
H    -5.821000000    -1.570000000    -4.703000000
C    -4.567000000    -0.406000000    -5.987000000
H    -5.393000000     0.270000000    -6.192000000
C    -3.281000000    -0.274000000    -6.548000000
H    -3.143000000     0.494000000    -7.305000000
C    -2.196000000    -1.035000000    -6.082000000
O    -0.850000000    -0.830000000    -6.505000000
C    -0.081000000     0.173000000    -6.047000000
C     1.210000000     0.348000000    -6.608000000
H     1.482000000    -0.347000000    -7.398000000
C     2.066000000     1.285000000    -5.976000000
O     3.379000000     1.401000000    -6.427000000
C     4.436000000     1.517000000    -5.611000000
C     4.720000000     0.608000000    -4.617000000
H     4.126000000    -0.286000000    -4.445000000
C     5.400000000     2.440000000    -5.938000000
H     5.228000000     3.121000000    -6.767000000
C     6.634000000     2.572000000    -5.219000000
H     7.349000000     3.328000000    -5.533000000
C     6.857000000     1.684000000    -4.173000000
H     7.786000000     1.678000000    -3.609000000
C     5.880000000     0.778000000    -3.844000000
O     6.242000000    -0.190000000    -2.911000000
C     5.708000000    -0.354000000    -1.688000000
C     5.700000000    -1.621000000    -1.116000000
H     6.225000000    -2.454000000    -1.577000000
C     5.131000000    -1.781000000     0.159000000
O     5.118000000    -2.940000000     0.759000000
C     4.879000000    -3.163000000     2.122000000
C     5.757000000    -2.584000000     3.023000000
H     6.627000000    -2.076000000     2.615000000
C     5.636000000    -2.729000000     4.415000000
H     6.381000000    -2.349000000     5.110000000
C     4.530000000    -3.401000000     4.927000000
H     4.331000000    -3.447000000     5.995000000
C     3.721000000    -4.081000000     3.969000000
C     3.852000000    -3.873000000     2.596000000
H     3.074000000    -4.291000000     1.963000000
C    -1.073000000    -2.694000000    -1.204000000
H    -1.696000000    -3.103000000    -1.995000000
C    -0.876000000    -1.319000000    -1.103000000
H    -1.378000000    -0.652000000    -1.799000000
C    -0.061000000    -0.805000000    -0.107000000
H     0.020000000     0.291000000    -0.062000000
C     0.613000000    -1.653000000     0.780000000
H     1.265000000    -1.291000000     1.571000000
C     0.414000000    -3.015000000     0.657000000
H     0.987000000    -3.644000000     1.333000000
C    -0.379000000    -3.549000000    -0.329000000
C    -0.425000000    -5.075000000    -0.530000000
O     0.068000000    -5.765000000     0.336000000
O    -0.752000000    -5.513000000    -1.607000000
O    -1.821000000    -8.018000000    -0.896000000
H    -1.372000000    -7.201000000    -1.115000000
H    -1.262000000    -8.428000000    -0.236000000
O    -2.521000000    -8.257000000    -5.527000000
H    -3.036000000    -7.498000000    -5.253000000
H    -2.754000000    -8.943000000    -4.901000000
O     1.325000000    -7.134000000    -2.259000000
H     1.148000000    -8.048000000    -2.483000000
H     0.479000000    -6.791000000    -1.971000000
O     3.949000000    -3.498000000    -5.155000000
H     3.564000000    -3.017000000    -4.423000000
H     3.637000000    -3.038000000    -5.934000000
O     2.790000000    -6.306000000     0.515000000
H     2.986000000    -6.734000000     1.349000000
H     1.865000000    -6.068000000     0.580000000
O     2.969000000    -7.582000000     2.752000000
H     3.015000000    -6.972000000     3.488000000
H     2.686000000    -8.409000000     3.142000000
O     4.174000000    -5.524000000    -1.776000000
H     3.663000000    -5.946000000    -1.085000000
H     3.767000000    -4.664000000    -1.883000000
O     2.478000000    -2.324000000    -3.175000000
H     2.039000000    -1.714000000    -2.582000000
H     1.904000000    -3.090000000    -3.198000000
O    -3.319000000    -9.495000000     1.930000000
H    -4.161000000    -9.048000000     1.842000000
H    -2.671000000    -8.832000000     1.694000000
O    -4.317000000    -8.559000000    -1.908000000
H    -4.048000000    -9.146000000    -2.615000000
H    -3.497000000    -8.292000000    -1.493000000
O     1.054000000    -4.626000000    -3.491000000
H     0.208000000    -4.478000000    -3.067000000
H     1.507000000    -5.240000000    -2.914000000
O    -0.051000000   -11.047000000     2.098000000
H    -0.303000000   -10.170000000     1.810000000
H    -0.796000000   -11.600000000     1.862000000
O    -1.213000000   -10.766000000    -1.891000000
H    -1.842000000   -10.071000000    -2.084000000
H    -1.749000000   -11.491000000    -1.569000000
O    -0.719000000    -8.126000000     1.630000000
H    -0.724000000    -8.018000000     2.581000000
H    -0.772000000    -7.234000000     1.288000000
O     1.019000000    -4.750000000    -6.185000000
H     1.149000000    -4.740000000    -5.237000000
H     0.161000000    -5.158000000    -6.305000000
O     3.996000000    -7.463000000    -3.513000000
H     4.241000000    -6.776000000    -2.893000000
H     3.066000000    -7.618000000    -3.343000000
O     4.696000000    -8.498000000     0.554000000
H     4.497000000    -9.299000000     1.040000000
H     4.182000000    -7.819000000     0.990000000
O    -2.282000000    -5.581000000    -3.865000000
H    -2.817000000    -4.788000000    -3.888000000
H    -1.821000000    -5.535000000    -3.027000000
O    -1.630000000    -5.085000000    -6.498000000
H    -2.395000000    -5.517000000    -6.878000000
H    -1.573000000    -5.437000000    -5.610000000
