215
-1451.17553
C     4.987000000     0.548000000    -2.453000000
H     5.248000000     1.522000000    -2.048000000
C     3.720000000     0.435000000    -3.006000000
C     3.305000000    -0.810000000    -3.403000000
H     2.278000000    -0.916000000    -3.743000000
C     2.685000000     1.570000000    -3.067000000
O     3.286000000     2.809000000    -2.683000000
H     1.908000000     1.370000000    -2.315000000
O     2.037000000     1.560000000    -4.345000000
C     0.692000000     1.762000000    -4.399000000
C    -0.099000000     0.708000000    -4.779000000
H     0.257000000    -0.305000000    -4.948000000
C    -1.519000000     0.734000000    -4.485000000
O    -2.265000000    -0.351000000    -4.563000000
C    -2.100000000     1.904000000    -3.957000000
C    -3.619000000     1.996000000    -3.704000000
H    -4.016000000     2.994000000    -3.903000000
C    -3.857000000     1.562000000    -2.310000000
C    -4.005000000     2.477000000    -1.268000000
H    -3.947000000     3.547000000    -1.452000000
H    -4.116000000     1.372000000    -4.450000000
C    -1.317000000     3.003000000    -3.610000000
H    -1.697000000     3.935000000    -3.200000000
C     0.095000000     2.897000000    -3.842000000
C     0.894000000     4.156000000    -3.490000000
H     0.221000000     5.012000000    -3.565000000
H     1.644000000     4.395000000    -4.247000000
C     1.358000000     4.170000000    -2.012000000
C     0.620000000     4.734000000    -0.971000000
H    -0.266000000     5.325000000    -1.190000000
C     2.588000000     3.566000000    -1.728000000
C     3.030000000     3.492000000    -0.436000000
H     3.993000000     3.053000000    -0.186000000
C     2.205000000     3.944000000     0.655000000
O     2.572000000     3.647000000     1.933000000
C     1.749000000     2.702000000     2.716000000
C     2.600000000     1.656000000     3.437000000
C     2.110000000     0.990000000     4.554000000
H     1.102000000     1.245000000     4.870000000
C     3.792000000     1.236000000     2.899000000
H     4.221000000     1.773000000     2.058000000
O     0.817000000     3.380000000     3.610000000
H     1.237000000     2.217000000     1.871000000
C     1.062000000     4.668000000     0.370000000
C     0.210000000     5.301000000     1.403000000
H    -0.334000000     6.136000000     0.957000000
H     0.822000000     5.786000000     2.166000000
C    -0.726000000     4.289000000     1.952000000
C    -2.082000000     4.233000000     1.435000000
H    -2.240000000     4.923000000     0.609000000
C    -0.430000000     3.454000000     3.052000000
C    -1.382000000     2.570000000     3.614000000
H    -1.026000000     1.964000000     4.444000000
C    -2.656000000     2.500000000     2.953000000
O    -3.466000000     1.495000000     3.345000000
C    -3.448000000     0.371000000     2.489000000
C    -3.411000000    -0.916000000     3.388000000
C    -2.980000000    -0.828000000     4.730000000
H    -2.724000000     0.115000000     5.206000000
C    -3.824000000    -2.089000000     2.817000000
H    -3.947000000    -2.084000000     1.737000000
O    -4.614000000     0.412000000     1.587000000
H    -2.488000000     0.486000000     1.964000000
C    -2.998000000     3.259000000     1.846000000
C    -4.345000000     3.243000000     1.108000000
H    -4.639000000     4.237000000     0.764000000
H    -5.169000000     3.032000000     1.794000000
C    -4.319000000     2.193000000     0.038000000
C    -4.439000000     0.839000000     0.334000000
C    -4.198000000    -0.064000000    -0.636000000
H    -4.250000000    -1.112000000    -0.351000000
C    -3.981000000     0.236000000    -1.984000000
O    -3.781000000    -0.866000000    -2.802000000
C    -2.467000000    -1.134000000    -3.297000000
H    -1.765000000    -0.863000000    -2.495000000
C    -2.406000000    -2.638000000    -3.522000000
C    -1.593000000    -3.115000000    -4.545000000
H    -1.167000000    -2.406000000    -5.251000000
C    -2.809000000    -3.476000000    -2.540000000
H    -3.307000000    -3.089000000    -1.655000000
C    -2.550000000    -4.771000000    -2.556000000
O    -2.958000000    -5.589000000    -1.509000000
C    -1.876000000    -5.349000000    -3.641000000
H    -1.604000000    -6.402000000    -3.623000000
C    -1.283000000    -4.471000000    -4.562000000
O    -0.407000000    -4.908000000    -5.571000000
C     0.762000000    -4.187000000    -5.740000000
C     1.628000000    -4.015000000    -4.677000000
H     1.470000000    -4.540000000    -3.738000000
C     1.027000000    -3.574000000    -7.007000000
H     0.262000000    -3.676000000    -7.771000000
C     2.163000000    -2.804000000    -7.169000000
H     2.462000000    -2.335000000    -8.103000000
C     2.949000000    -2.606000000    -6.069000000
H     3.890000000    -2.091000000    -6.246000000
C     2.793000000    -3.260000000    -4.870000000
O     3.710000000    -3.116000000    -3.800000000
C     4.115000000    -1.906000000    -3.411000000
C     5.406000000    -1.797000000    -2.837000000
H     6.079000000    -2.648000000    -2.770000000
C     5.837000000    -0.542000000    -2.314000000
O     7.050000000    -0.371000000    -1.756000000
C     7.081000000     0.082000000    -0.505000000
C     6.373000000    -0.449000000     0.593000000
H     5.709000000    -1.309000000     0.612000000
C     7.979000000     1.104000000    -0.260000000
H     8.564000000     1.612000000    -1.022000000
C     8.094000000     1.590000000     1.075000000
H     8.706000000     2.471000000     1.251000000
C     7.215000000     1.161000000     2.105000000
H     7.202000000     1.679000000     3.060000000
C     6.394000000     0.122000000     1.850000000
O     5.594000000    -0.386000000     2.873000000
C     4.418000000     0.102000000     3.415000000
C     3.893000000    -0.516000000     4.513000000
H     4.358000000    -1.416000000     4.908000000
C     2.799000000    -0.056000000     5.143000000
O     2.193000000    -0.747000000     6.187000000
C     0.877000000    -0.467000000     6.715000000
C    -0.162000000    -1.339000000     6.437000000
H    -0.007000000    -1.947000000     5.550000000
C     0.654000000     0.509000000     7.656000000
H     1.453000000     1.232000000     7.792000000
C    -0.485000000     0.598000000     8.367000000
H    -0.400000000     1.374000000     9.124000000
C    -1.505000000    -0.208000000     8.136000000
H    -2.457000000    -0.038000000     8.633000000
C    -1.376000000    -1.191000000     7.098000000
O    -2.454000000    -1.990000000     6.723000000
C    -2.938000000    -2.011000000     5.458000000
C    -3.366000000    -3.156000000     4.926000000
H    -3.360000000    -4.059000000     5.531000000
C    -3.802000000    -3.253000000     3.619000000
O    -4.055000000    -4.486000000     3.011000000
C    -4.442000000    -4.506000000     1.669000000
C    -5.755000000    -4.310000000     1.347000000
H    -6.516000000    -4.000000000     2.059000000
C    -6.210000000    -4.658000000     0.074000000
H    -7.284000000    -4.735000000    -0.077000000
C    -5.310000000    -5.022000000    -0.937000000
H    -5.646000000    -5.214000000    -1.953000000
C    -3.960000000    -5.162000000    -0.628000000
C    -3.551000000    -4.987000000     0.691000000
H    -2.538000000    -5.200000000     1.023000000
C     2.289000000    -1.792000000    -0.137000000
H     3.366000000    -1.935000000    -0.094000000
C     1.711000000    -0.524000000    -0.182000000
H     2.369000000     0.336000000    -0.091000000
C     0.302000000    -0.373000000    -0.280000000
H    -0.008000000     0.653000000    -0.400000000
C    -0.469000000    -1.440000000    -0.390000000
H    -1.535000000    -1.250000000    -0.294000000
C     0.065000000    -2.718000000    -0.286000000
H    -0.506000000    -3.617000000    -0.499000000
C     1.446000000    -2.925000000    -0.203000000
C     2.012000000    -4.315000000    -0.067000000
O     1.227000000    -5.289000000    -0.010000000
O     3.198000000    -4.521000000    -0.158000000
O     3.932000000    -7.124000000     0.782000000
H     4.086000000    -6.975000000     1.715000000
H     3.365000000    -6.401000000     0.514000000
O     7.065000000    -3.233000000     2.316000000
H     6.973000000    -3.464000000     1.392000000
H     6.223000000    -3.466000000     2.707000000
O    -0.992000000    -6.710000000     4.051000000
H    -1.892000000    -7.021000000     3.959000000
H    -0.886000000    -6.071000000     3.347000000
O    -0.790000000    -7.236000000    -0.553000000
H    -1.526000000    -6.729000000    -0.896000000
H    -0.136000000    -6.578000000    -0.316000000
O     4.124000000    -4.089000000     2.376000000
H     3.838000000    -4.075000000     1.463000000
H     4.125000000    -5.016000000     2.613000000
O    -0.809000000    -9.270000000    -2.424000000
H    -0.270000000   -10.031000000    -2.207000000
H    -0.639000000    -8.648000000    -1.717000000
O     0.687000000    -7.831000000    -4.383000000
H     1.203000000    -7.285000000    -3.789000000
H     0.096000000    -8.318000000    -3.808000000
O     1.674000000    -6.544000000    -2.376000000
H     2.622000000    -6.625000000    -2.484000000
H     1.568000000    -5.947000000    -1.635000000
O     3.298000000    -9.035000000    -1.051000000
H     3.032000000    -8.826000000    -1.947000000
H     3.453000000    -8.183000000    -0.643000000
O     6.104000000    -8.706000000     0.569000000
H     6.497000000    -8.211000000    -0.150000000
H     5.244000000    -8.306000000     0.693000000
O     4.459000000    -5.692000000    -2.409000000
H     5.306000000    -5.247000000    -2.410000000
H     3.978000000    -5.292000000    -1.684000000
O     0.698000000    -8.763000000     3.843000000
H     0.199000000    -7.948000000     3.777000000
H     0.881000000    -9.005000000     2.936000000
O    -2.472000000    -9.083000000     1.220000000
H    -3.107000000    -9.068000000     0.504000000
H    -1.787000000    -8.474000000     0.946000000
O     1.317000000    -8.647000000     1.357000000
H     2.239000000    -8.396000000     1.302000000
H     0.897000000    -8.177000000     0.636000000
O     5.085000000    -5.768000000    -5.226000000
H     4.649000000    -5.327000000    -4.496000000
H     4.375000000    -6.186000000    -5.712000000
O     1.825000000    -3.032000000     3.421000000
H     1.709000000    -2.380000000     2.731000000
H     2.694000000    -3.399000000     3.261000000
O     3.992000000    -6.948000000     3.478000000
H     4.803000000    -6.932000000     3.985000000
H     3.361000000    -7.387000000     4.048000000
O    -0.393000000    -4.483000000     2.341000000
H     0.393000000    -4.822000000     1.912000000
H    -0.088000000    -3.720000000     2.832000000
O     6.416000000    -3.963000000    -0.244000000
H     6.572000000    -4.483000000    -1.032000000
H     5.474000000    -4.034000000    -0.091000000
