215
-1456.14400
C     4.639000000     0.197000000    -2.198000000
H     4.666000000     0.725000000    -1.248000000
C     3.720000000     0.448000000    -3.265000000
C     3.681000000    -0.463000000    -4.299000000
H     2.911000000    -0.360000000    -5.059000000
C     2.572000000     1.500000000    -3.019000000
O     3.298000000     2.628000000    -2.507000000
H     1.835000000     1.096000000    -2.309000000
O     1.907000000     1.895000000    -4.248000000
C     0.569000000     2.177000000    -4.219000000
C    -0.291000000     1.223000000    -4.734000000
H     0.094000000     0.282000000    -5.119000000
C    -1.661000000     1.319000000    -4.557000000
O    -2.397000000     0.102000000    -4.620000000
C    -2.264000000     2.453000000    -3.879000000
C    -3.743000000     2.583000000    -3.565000000
H    -4.107000000     3.594000000    -3.759000000
C    -3.974000000     1.951000000    -2.181000000
C    -4.033000000     2.820000000    -1.101000000
H    -3.920000000     3.883000000    -1.292000000
H    -4.364000000     2.031000000    -4.274000000
C    -1.368000000     3.436000000    -3.463000000
H    -1.753000000     4.377000000    -3.078000000
C     0.027000000     3.293000000    -3.601000000
C     0.954000000     4.538000000    -3.275000000
H     0.399000000     5.478000000    -3.289000000
H     1.701000000     4.618000000    -4.067000000
C     1.432000000     4.176000000    -1.852000000
C     0.824000000     4.816000000    -0.803000000
H     0.068000000     5.563000000    -1.029000000
C     2.658000000     3.509000000    -1.587000000
C     3.021000000     3.200000000    -0.259000000
H     3.883000000     2.551000000    -0.129000000
C     2.277000000     3.733000000     0.818000000
O     2.683000000     3.308000000     2.080000000
C     1.814000000     2.491000000     2.836000000
C     2.655000000     1.474000000     3.652000000
C     2.155000000     1.090000000     4.927000000
H     1.195000000     1.429000000     5.308000000
C     3.613000000     0.690000000     2.981000000
H     3.955000000     0.933000000     1.978000000
O     0.928000000     3.288000000     3.601000000
H     1.180000000     1.879000000     2.178000000
C     1.197000000     4.613000000     0.517000000
C     0.493000000     5.298000000     1.683000000
H     0.135000000     6.275000000     1.351000000
H     1.147000000     5.479000000     2.539000000
C    -0.649000000     4.400000000     2.139000000
C    -2.034000000     4.523000000     1.739000000
H    -2.355000000     5.222000000     0.972000000
C    -0.365000000     3.444000000     3.106000000
C    -1.319000000     2.536000000     3.517000000
H    -1.047000000     1.746000000     4.212000000
C    -2.667000000     2.558000000     2.951000000
O    -3.451000000     1.476000000     3.326000000
C    -3.605000000     0.312000000     2.481000000
C    -3.553000000    -1.001000000     3.322000000
C    -3.022000000    -0.954000000     4.605000000
H    -2.733000000    -0.037000000     5.112000000
C    -3.988000000    -2.219000000     2.704000000
H    -4.545000000    -2.191000000     1.771000000
O    -4.800000000     0.409000000     1.655000000
H    -2.763000000     0.202000000     1.782000000
C    -2.988000000     3.526000000     2.032000000
C    -4.325000000     3.422000000     1.352000000
H    -4.585000000     4.358000000     0.852000000
H    -5.153000000     3.259000000     2.045000000
C    -4.292000000     2.373000000     0.206000000
C    -4.497000000     1.011000000     0.438000000
C    -4.441000000     0.133000000    -0.649000000
H    -4.600000000    -0.933000000    -0.505000000
C    -4.126000000     0.584000000    -1.976000000
O    -3.893000000    -0.401000000    -2.871000000
C    -2.514000000    -0.621000000    -3.391000000
H    -1.791000000    -0.233000000    -2.658000000
C    -2.161000000    -2.074000000    -3.470000000
C    -1.309000000    -2.519000000    -4.423000000
H    -0.963000000    -1.899000000    -5.246000000
C    -2.725000000    -2.976000000    -2.579000000
H    -3.398000000    -2.578000000    -1.823000000
C    -2.275000000    -4.284000000    -2.598000000
O    -2.746000000    -5.288000000    -1.698000000
C    -1.240000000    -4.702000000    -3.424000000
H    -1.014000000    -5.765000000    -3.447000000
C    -0.814000000    -3.812000000    -4.378000000
O     0.226000000    -4.288000000    -5.180000000
C     1.169000000    -3.572000000    -5.936000000
C     2.443000000    -3.230000000    -5.392000000
H     2.709000000    -3.535000000    -4.383000000
C     0.865000000    -3.352000000    -7.292000000
H    -0.080000000    -3.753000000    -7.649000000
C     1.844000000    -2.698000000    -8.035000000
H     1.614000000    -2.558000000    -9.088000000
C     3.104000000    -2.392000000    -7.481000000
H     3.798000000    -1.785000000    -8.057000000
C     3.439000000    -2.678000000    -6.171000000
O     4.647000000    -2.249000000    -5.602000000
C     4.678000000    -1.415000000    -4.470000000
C     5.726000000    -1.532000000    -3.560000000
H     6.500000000    -2.292000000    -3.622000000
C     5.660000000    -0.703000000    -2.431000000
O     6.634000000    -0.989000000    -1.473000000
C     6.633000000    -0.504000000    -0.207000000
C     5.861000000    -1.068000000     0.697000000
H     5.069000000    -1.763000000     0.429000000
C     7.607000000     0.360000000     0.194000000
H     8.133000000     0.837000000    -0.629000000
C     7.784000000     0.725000000     1.529000000
H     8.582000000     1.437000000     1.724000000
C     7.007000000     0.143000000     2.508000000
H     7.085000000     0.425000000     3.555000000
C     5.937000000    -0.645000000     2.042000000
O     5.179000000    -1.185000000     3.017000000
C     4.127000000    -0.432000000     3.598000000
C     3.655000000    -0.786000000     4.856000000
H     3.956000000    -1.685000000     5.388000000
C     2.642000000    -0.065000000     5.502000000
O     2.080000000    -0.687000000     6.638000000
C     0.766000000    -0.656000000     7.113000000
C    -0.291000000    -1.442000000     6.523000000
H    -0.019000000    -1.997000000     5.629000000
C     0.601000000    -0.072000000     8.391000000
H     1.395000000     0.499000000     8.865000000
C    -0.627000000    -0.199000000     9.078000000
H    -0.854000000     0.393000000     9.960000000
C    -1.721000000    -0.849000000     8.455000000
H    -2.707000000    -0.829000000     8.913000000
C    -1.534000000    -1.463000000     7.171000000
O    -2.552000000    -2.128000000     6.570000000
C    -2.889000000    -2.154000000     5.247000000
C    -3.136000000    -3.334000000     4.634000000
H    -3.072000000    -4.245000000     5.222000000
C    -3.749000000    -3.398000000     3.419000000
O    -3.992000000    -4.609000000     2.861000000
C    -4.321000000    -4.793000000     1.563000000
C    -5.701000000    -4.937000000     1.174000000
H    -6.414000000    -4.930000000     1.995000000
C    -6.086000000    -5.064000000    -0.177000000
H    -7.132000000    -5.099000000    -0.474000000
C    -5.106000000    -5.134000000    -1.194000000
H    -5.404000000    -5.189000000    -2.238000000
C    -3.769000000    -5.159000000    -0.745000000
C    -3.376000000    -4.976000000     0.566000000
H    -2.300000000    -4.940000000     0.721000000
C     1.761000000    -1.274000000    -0.056000000
H     2.838000000    -1.419000000    -0.050000000
C     1.184000000     0.030000000    -0.060000000
H     1.786000000     0.910000000    -0.274000000
C    -0.218000000     0.141000000    -0.024000000
H    -0.649000000     1.055000000    -0.193000000
C    -0.984000000    -0.961000000     0.076000000
H    -2.067000000    -0.874000000     0.036000000
C    -0.438000000    -2.247000000     0.149000000
H    -1.098000000    -3.103000000     0.264000000
C     0.929000000    -2.376000000     0.141000000
C     1.514000000    -3.738000000     0.185000000
O     0.809000000    -4.735000000     0.305000000
O     2.723000000    -3.934000000     0.243000000
O     2.703000000    -7.087000000     1.154000000
H     3.369000000    -6.861000000     1.803000000
H     2.431000000    -6.247000000     0.786000000
O     6.514000000    -3.891000000     2.902000000
H     6.022000000    -4.463000000     2.313000000
H     5.917000000    -3.165000000     3.086000000
O    -0.561000000    -7.544000000     4.309000000
H    -1.500000000    -7.709000000     4.223000000
H    -0.389000000    -6.818000000     3.709000000
O    -0.511000000    -7.501000000    -0.195000000
H    -0.145000000    -7.609000000    -1.073000000
H     0.087000000    -6.891000000     0.239000000
O     2.824000000    -3.872000000     3.110000000
H     2.527000000    -2.978000000     3.280000000
H     2.875000000    -3.930000000     2.156000000
O     1.228000000    -8.856000000    -3.064000000
H     1.423000000    -7.920000000    -3.120000000
H     0.427000000    -8.965000000    -3.575000000
O     1.563000000    -6.241000000    -2.077000000
H     2.421000000    -5.830000000    -2.180000000
H     1.111000000    -5.695000000    -1.434000000
O     2.717000000    -9.226000000    -0.933000000
H     2.498000000    -8.914000000    -1.811000000
H     2.478000000    -8.501000000    -0.355000000
O     3.631000000    -4.291000000    -2.291000000
H     4.583000000    -4.204000000    -2.242000000
H     3.323000000    -4.029000000    -1.423000000
O    -2.837000000    -8.251000000     0.806000000
H    -3.572000000    -7.849000000     0.344000000
H    -2.063000000    -7.817000000     0.448000000
O     0.802000000    -9.329000000     1.571000000
H     1.522000000    -8.708000000     1.459000000
H     0.114000000    -9.005000000     0.989000000
O     3.948000000    -6.576000000    -4.466000000
H     3.361000000    -6.118000000    -3.864000000
H     4.379000000    -5.877000000    -4.958000000
O     0.296000000    -1.907000000     3.153000000
H    -0.629000000    -2.146000000     3.206000000
H     0.461000000    -1.797000000     2.216000000
O     4.483000000    -6.873000000     3.461000000
H     4.063000000    -6.102000000     3.841000000
H     4.121000000    -7.610000000     3.952000000
O    -0.112000000    -5.171000000     2.726000000
H     0.073000000    -4.960000000     1.811000000
H     0.539000000    -4.674000000     3.222000000
O     6.279000000    -4.510000000    -2.363000000
H     6.612000000    -5.163000000    -2.978000000
H     7.064000000    -4.089000000    -2.012000000
O     6.234000000    -7.261000000    -2.867000000
H     6.171000000    -8.215000000    -2.911000000
H     5.474000000    -6.948000000    -3.359000000
O     5.009000000    -5.080000000     0.366000000
H     5.332000000    -4.999000000    -0.531000000
H     4.123000000    -4.719000000     0.336000000
O     3.326000000    -5.123000000     5.700000000
H     2.449000000    -5.351000000     6.007000000
H     3.178000000    -4.668000000     4.870000000
