215
-1433.01697
C     5.271000000    -0.826000000    -1.136000000
H     5.476000000     0.051000000    -0.527000000
C     4.516000000    -0.736000000    -2.277000000
C     4.189000000    -1.853000000    -2.970000000
H     3.469000000    -1.754000000    -3.778000000
C     3.743000000     0.527000000    -2.385000000
O     4.373000000     1.708000000    -1.700000000
H     2.813000000     0.495000000    -1.799000000
O     3.399000000     0.780000000    -3.743000000
C     2.105000000     1.288000000    -4.028000000
C     1.142000000     0.360000000    -4.364000000
H     1.379000000    -0.700000000    -4.423000000
C    -0.190000000     0.722000000    -4.530000000
O    -1.130000000    -0.280000000    -4.846000000
C    -0.563000000     2.069000000    -4.218000000
C    -1.980000000     2.574000000    -4.357000000
H    -2.036000000     3.648000000    -4.545000000
C    -2.824000000     2.254000000    -3.075000000
C    -3.026000000     3.242000000    -2.111000000
H    -2.592000000     4.214000000    -2.333000000
H    -2.359000000     2.112000000    -5.271000000
C     0.414000000     3.007000000    -3.827000000
H     0.191000000     4.048000000    -3.606000000
C     1.756000000     2.626000000    -3.746000000
C     2.706000000     3.607000000    -3.217000000
H     2.544000000     4.611000000    -3.614000000
H     3.692000000     3.421000000    -3.647000000
C     2.839000000     3.547000000    -1.714000000
C     2.049000000     4.419000000    -0.999000000
H     1.407000000     5.117000000    -1.530000000
C     3.608000000     2.606000000    -0.996000000
C     3.652000000     2.521000000     0.367000000
H     4.461000000     1.945000000     0.808000000
C     2.810000000     3.290000000     1.063000000
O     2.794000000     3.070000000     2.420000000
C     1.632000000     2.385000000     2.957000000
C     2.002000000     1.347000000     4.032000000
C     1.101000000     0.909000000     5.024000000
H     0.153000000     1.428000000     5.144000000
C     3.288000000     0.834000000     3.984000000
H     3.912000000     1.196000000     3.171000000
O     0.794000000     3.462000000     3.397000000
H     1.222000000     1.917000000     2.050000000
C     1.923000000     4.226000000     0.391000000
C     1.125000000     5.199000000     1.220000000
H     1.027000000     6.082000000     0.585000000
H     1.552000000     5.568000000     2.155000000
C    -0.186000000     4.575000000     1.591000000
C    -1.354000000     4.778000000     0.792000000
H    -1.269000000     5.447000000    -0.061000000
C    -0.318000000     3.793000000     2.726000000
C    -1.564000000     3.181000000     3.089000000
H    -1.488000000     2.546000000     3.969000000
C    -2.664000000     3.383000000     2.289000000
O    -3.673000000     2.538000000     2.533000000
C    -3.657000000     1.315000000     1.687000000
C    -4.067000000     0.039000000     2.360000000
C    -3.780000000    -0.070000000     3.724000000
H    -3.489000000     0.790000000     4.322000000
C    -4.403000000    -1.109000000     1.658000000
H    -4.559000000    -0.994000000     0.588000000
O    -4.590000000     1.523000000     0.647000000
H    -2.655000000     1.106000000     1.284000000
C    -2.557000000     4.149000000     1.119000000
C    -3.647000000     4.292000000     0.052000000
H    -3.497000000     5.266000000    -0.420000000
H    -4.610000000     4.388000000     0.559000000
C    -3.579000000     3.037000000    -0.876000000
C    -4.039000000     1.765000000    -0.611000000
C    -3.979000000     0.779000000    -1.584000000
H    -4.419000000    -0.206000000    -1.456000000
C    -3.352000000     0.974000000    -2.814000000
O    -3.243000000    -0.107000000    -3.704000000
C    -1.959000000    -0.746000000    -3.737000000
H    -1.350000000    -0.524000000    -2.848000000
C    -2.086000000    -2.273000000    -3.761000000
C    -1.138000000    -3.131000000    -4.312000000
H    -0.389000000    -2.685000000    -4.961000000
C    -3.182000000    -2.929000000    -3.158000000
H    -3.841000000    -2.283000000    -2.583000000
C    -3.334000000    -4.278000000    -3.210000000
O    -4.548000000    -4.845000000    -2.725000000
C    -2.331000000    -5.137000000    -3.753000000
H    -2.517000000    -6.203000000    -3.656000000
C    -1.206000000    -4.553000000    -4.322000000
O    -0.229000000    -5.425000000    -4.680000000
C     1.029000000    -4.943000000    -5.012000000
C     1.988000000    -4.876000000    -4.010000000
H     1.693000000    -5.223000000    -3.024000000
C     1.333000000    -4.457000000    -6.288000000
H     0.539000000    -4.461000000    -7.030000000
C     2.544000000    -4.003000000    -6.563000000
H     2.710000000    -3.570000000    -7.546000000
C     3.517000000    -3.904000000    -5.523000000
H     4.469000000    -3.419000000    -5.720000000
C     3.200000000    -4.248000000    -4.215000000
O     4.185000000    -4.187000000    -3.277000000
C     4.716000000    -3.097000000    -2.626000000
C     5.532000000    -3.185000000    -1.528000000
H     5.893000000    -4.174000000    -1.259000000
C     5.758000000    -2.067000000    -0.759000000
O     6.493000000    -2.251000000     0.411000000
C     6.526000000    -1.376000000     1.508000000
C     5.650000000    -1.491000000     2.570000000
H     4.968000000    -2.334000000     2.495000000
C     7.450000000    -0.334000000     1.519000000
H     8.004000000    -0.121000000     0.608000000
C     7.488000000     0.548000000     2.601000000
H     7.910000000     1.546000000     2.512000000
C     6.664000000     0.324000000     3.687000000
H     6.723000000     1.012000000     4.527000000
C     5.770000000    -0.677000000     3.665000000
O     4.865000000    -0.832000000     4.656000000
C     3.645000000    -0.242000000     4.715000000
C     2.732000000    -0.613000000     5.711000000
H     3.113000000    -1.363000000     6.399000000
C     1.469000000    -0.092000000     5.871000000
O     0.729000000    -0.534000000     6.995000000
C    -0.608000000    -0.319000000     7.110000000
C    -1.509000000    -0.976000000     6.274000000
H    -1.280000000    -1.761000000     5.558000000
C    -0.965000000     0.732000000     7.924000000
H    -0.204000000     1.138000000     8.585000000
C    -2.285000000     0.946000000     8.157000000
H    -2.599000000     1.649000000     8.925000000
C    -3.219000000     0.126000000     7.488000000
H    -4.270000000     0.346000000     7.655000000
C    -2.825000000    -0.702000000     6.495000000
O    -3.810000000    -1.387000000     5.734000000
C    -3.977000000    -1.313000000     4.391000000
C    -4.568000000    -2.375000000     3.711000000
H    -4.776000000    -3.307000000     4.229000000
C    -4.794000000    -2.293000000     2.331000000
O    -5.486000000    -3.266000000     1.640000000
C    -5.780000000    -3.329000000     0.297000000
C    -6.819000000    -2.629000000    -0.194000000
H    -7.484000000    -2.133000000     0.509000000
C    -7.183000000    -2.698000000    -1.567000000
H    -8.032000000    -2.089000000    -1.867000000
C    -6.463000000    -3.517000000    -2.449000000
H    -6.697000000    -3.569000000    -3.509000000
C    -5.371000000    -4.180000000    -1.937000000
C    -5.031000000    -4.133000000    -0.570000000
H    -4.297000000    -4.830000000    -0.174000000
C     1.788000000    -1.537000000     1.977000000
H     2.691000000    -1.651000000     2.572000000
C     1.521000000    -0.451000000     1.113000000
H     2.280000000     0.322000000     1.026000000
C     0.362000000    -0.373000000     0.344000000
H     0.134000000     0.486000000    -0.244000000
C    -0.696000000    -1.288000000     0.641000000
H    -1.710000000    -1.181000000     0.264000000
C    -0.520000000    -2.291000000     1.547000000
H    -1.388000000    -2.914000000     1.743000000
C     0.740000000    -2.418000000     2.224000000
C     0.897000000    -3.582000000     3.148000000
O     0.003000000    -4.443000000     3.209000000
O     1.971000000    -3.742000000     3.742000000
O    -2.483000000    -6.944000000    -0.966000000
H    -1.809000000    -6.833000000    -1.637000000
H    -2.185000000    -6.402000000    -0.235000000
O     4.517000000    -4.505000000     4.475000000
H     3.618000000    -4.211000000     4.329000000
H     4.889000000    -4.586000000     3.596000000
O     4.638000000    -8.495000000     5.943000000
H     3.978000000    -9.156000000     6.150000000
H     4.531000000    -8.334000000     5.005000000
O    -3.438000000    -8.740000000     1.294000000
H    -3.013000000    -8.073000000     0.755000000
H    -3.039000000    -9.564000000     1.015000000
O    -1.425000000    -5.657000000     1.148000000
H    -1.321000000    -5.304000000     2.031000000
H    -0.582000000    -6.067000000     0.953000000
O     2.556000000    -6.474000000     6.322000000
H     2.415000000    -5.533000000     6.217000000
H     3.461000000    -6.613000000     6.042000000
O     1.130000000    -6.518000000     2.471000000
H     1.636000000    -6.669000000     3.269000000
H     0.573000000    -5.767000000     2.678000000
O     4.135000000    -9.051000000     3.268000000
H     3.334000000    -9.554000000     3.418000000
H     3.946000000    -8.526000000     2.490000000
O     3.478000000    -6.538000000     0.634000000
H     2.651000000    -6.172000000     0.946000000
H     4.145000000    -5.935000000     0.962000000
O     0.825000000    -8.639000000     0.481000000
H     0.707000000    -8.756000000     1.424000000
H     1.652000000    -8.163000000     0.401000000
O    -0.875000000    -4.163000000     8.141000000
H    -1.681000000    -3.861000000     8.561000000
H    -1.101000000    -4.237000000     7.214000000
O     5.893000000    -6.116000000     6.687000000
H     5.341000000    -5.567000000     6.130000000
H     5.518000000    -6.994000000     6.604000000
O     4.454000000    -2.750000000     7.888000000
H     4.138000000    -3.214000000     7.112000000
H     4.064000000    -3.222000000     8.624000000
O    -3.744000000    -3.768000000     7.387000000
H    -3.556000000    -3.425000000     6.513000000
H    -3.559000000    -3.038000000     7.977000000
O     5.415000000    -4.895000000     1.667000000
H     6.254000000    -5.218000000     1.996000000
H     5.650000000    -4.278000000     0.974000000
O    -1.412000000    -4.648000000     5.451000000
H    -0.964000000    -4.788000000     4.617000000
H    -1.449000000    -5.516000000     5.852000000
O     6.597000000    -2.894000000     6.134000000
H     6.038000000    -2.759000000     6.900000000
H     6.035000000    -3.346000000     5.505000000
O    -0.188000000    -7.641000000     6.851000000
H     0.588000000    -7.084000000     6.902000000
H    -0.032000000    -8.201000000     6.090000000
O     1.776000000    -3.834000000     6.279000000
H     0.833000000    -3.721000000     6.395000000
H     1.923000000    -3.682000000     5.345000000
