215
-1463.79364
C     5.150000000     0.015000000    -1.623000000
H     5.241000000     0.973000000    -1.119000000
C     4.187000000    -0.075000000    -2.630000000
C     4.128000000    -1.272000000    -3.294000000
H     3.373000000    -1.402000000    -4.064000000
C     3.124000000     0.965000000    -2.791000000
O     3.671000000     2.303000000    -2.511000000
H     2.326000000     0.777000000    -2.058000000
O     2.546000000     0.899000000    -4.103000000
C     1.247000000     1.310000000    -4.227000000
C     0.407000000     0.236000000    -4.481000000
H     0.829000000    -0.746000000    -4.676000000
C    -0.934000000     0.401000000    -4.404000000
O    -1.749000000    -0.686000000    -4.554000000
C    -1.389000000     1.646000000    -4.238000000
C    -2.897000000     1.979000000    -4.358000000
H    -3.036000000     3.015000000    -4.675000000
C    -3.641000000     1.778000000    -3.054000000
C    -3.616000000     2.802000000    -2.109000000
H    -3.088000000     3.717000000    -2.365000000
H    -3.439000000     1.384000000    -5.096000000
C    -0.599000000     2.736000000    -3.981000000
H    -1.011000000     3.735000000    -3.863000000
C     0.754000000     2.558000000    -3.923000000
C     1.578000000     3.803000000    -3.679000000
H     1.000000000     4.666000000    -4.017000000
H     2.452000000     3.728000000    -4.330000000
C     1.983000000     3.960000000    -2.171000000
C     1.165000000     4.760000000    -1.202000000
H     0.285000000     5.283000000    -1.567000000
C     2.998000000     3.162000000    -1.675000000
C     3.327000000     3.177000000    -0.323000000
H     4.057000000     2.475000000     0.073000000
C     2.600000000     3.966000000     0.543000000
O     2.742000000     3.653000000     1.921000000
C     1.793000000     2.686000000     2.475000000
C     2.458000000     1.641000000     3.324000000
C     1.732000000     0.869000000     4.292000000
H     0.648000000     0.949000000     4.308000000
C     3.825000000     1.476000000     3.213000000
H     4.385000000     2.064000000     2.489000000
O     0.840000000     3.471000000     3.204000000
H     1.206000000     2.118000000     1.737000000
C     1.552000000     4.780000000     0.114000000
C     0.651000000     5.429000000     1.165000000
H     0.328000000     6.394000000     0.771000000
H     1.197000000     5.722000000     2.065000000
C    -0.510000000     4.552000000     1.575000000
C    -1.685000000     4.491000000     0.706000000
H    -1.648000000     4.916000000    -0.294000000
C    -0.384000000     3.646000000     2.631000000
C    -1.471000000     2.893000000     2.943000000
H    -1.278000000     2.228000000     3.781000000
C    -2.658000000     2.873000000     2.232000000
O    -3.676000000     1.999000000     2.593000000
C    -3.823000000     0.812000000     1.763000000
C    -4.198000000    -0.318000000     2.711000000
C    -3.409000000    -0.481000000     3.858000000
H    -2.741000000     0.318000000     4.169000000
C    -5.112000000    -1.306000000     2.361000000
H    -5.773000000    -1.157000000     1.511000000
O    -4.888000000     0.917000000     0.780000000
H    -2.851000000     0.584000000     1.301000000
C    -2.767000000     3.703000000     1.092000000
C    -4.048000000     3.683000000     0.248000000
H    -4.207000000     4.639000000    -0.255000000
H    -4.935000000     3.546000000     0.870000000
C    -4.110000000     2.592000000    -0.807000000
C    -4.553000000     1.261000000    -0.492000000
C    -4.643000000     0.234000000    -1.425000000
H    -4.913000000    -0.757000000    -1.071000000
C    -4.101000000     0.494000000    -2.683000000
O    -3.883000000    -0.642000000    -3.491000000
C    -2.465000000    -1.072000000    -3.370000000
H    -1.972000000    -0.533000000    -2.547000000
C    -2.285000000    -2.543000000    -3.136000000
C    -1.010000000    -3.104000000    -3.315000000
H    -0.183000000    -2.522000000    -3.715000000
C    -3.402000000    -3.229000000    -2.658000000
H    -4.387000000    -2.782000000    -2.550000000
C    -3.185000000    -4.490000000    -2.185000000
O    -4.284000000    -5.167000000    -1.586000000
C    -1.922000000    -5.119000000    -2.356000000
H    -1.730000000    -6.164000000    -2.125000000
C    -0.875000000    -4.469000000    -2.981000000
O     0.294000000    -5.169000000    -3.102000000
C     1.375000000    -4.868000000    -3.885000000
C     2.564000000    -4.420000000    -3.275000000
H     2.533000000    -4.099000000    -2.237000000
C     1.300000000    -5.135000000    -5.249000000
H     0.394000000    -5.605000000    -5.624000000
C     2.383000000    -4.774000000    -6.101000000
H     2.386000000    -5.102000000    -7.138000000
C     3.539000000    -4.274000000    -5.490000000
H     4.431000000    -4.023000000    -6.057000000
C     3.693000000    -4.123000000    -4.097000000
O     4.826000000    -3.529000000    -3.672000000
C     4.846000000    -2.377000000    -2.975000000
C     5.885000000    -2.211000000    -2.083000000
H     6.553000000    -3.050000000    -1.906000000
C     6.082000000    -0.990000000    -1.483000000
O     7.107000000    -0.914000000    -0.603000000
C     7.243000000    -0.027000000     0.537000000
C     6.453000000    -0.281000000     1.653000000
H     5.719000000    -1.079000000     1.579000000
C     8.199000000     1.070000000     0.569000000
H     8.745000000     1.288000000    -0.344000000
C     8.382000000     1.820000000     1.715000000
H     9.103000000     2.633000000     1.759000000
C     7.574000000     1.499000000     2.840000000
H     7.552000000     2.075000000     3.762000000
C     6.634000000     0.473000000     2.784000000
O     5.842000000     0.308000000     3.904000000
C     4.484000000     0.499000000     3.970000000
C     3.740000000    -0.261000000     4.860000000
H     4.265000000    -0.900000000     5.565000000
C     2.422000000    -0.020000000     5.058000000
O     1.844000000    -0.847000000     5.958000000
C     0.522000000    -0.654000000     6.417000000
C    -0.623000000    -1.136000000     5.733000000
H    -0.401000000    -1.736000000     4.854000000
C     0.303000000     0.026000000     7.610000000
H     1.151000000     0.240000000     8.255000000
C    -0.958000000     0.224000000     8.176000000
H    -1.084000000     0.759000000     9.114000000
C    -2.111000000    -0.238000000     7.536000000
H    -3.094000000    -0.117000000     7.983000000
C    -1.901000000    -0.951000000     6.317000000
O    -2.890000000    -1.765000000     5.895000000
C    -3.574000000    -1.611000000     4.688000000
C    -4.351000000    -2.636000000     4.201000000
H    -4.276000000    -3.572000000     4.749000000
C    -5.191000000    -2.477000000     3.127000000
O    -5.971000000    -3.530000000     2.722000000
C    -6.107000000    -3.856000000     1.401000000
C    -7.269000000    -3.319000000     0.794000000
H    -7.920000000    -2.714000000     1.420000000
C    -7.391000000    -3.387000000    -0.630000000
H    -8.266000000    -3.007000000    -1.151000000
C    -6.419000000    -3.973000000    -1.374000000
H    -6.560000000    -4.099000000    -2.444000000
C    -5.272000000    -4.532000000    -0.778000000
C    -5.104000000    -4.473000000     0.608000000
H    -4.123000000    -4.811000000     0.934000000
C     1.931000000    -1.284000000     1.155000000
H     2.996000000    -1.284000000     1.372000000
C     1.449000000    -0.146000000     0.586000000
H     2.140000000     0.678000000     0.423000000
C     0.142000000    -0.191000000     0.100000000
H    -0.259000000     0.563000000    -0.572000000
C    -0.620000000    -1.280000000     0.271000000
H    -1.631000000    -1.376000000    -0.115000000
C    -0.230000000    -2.343000000     1.073000000
H    -0.896000000    -3.182000000     1.253000000
C     1.139000000    -2.380000000     1.489000000
C     1.642000000    -3.607000000     2.196000000
O     0.877000000    -4.517000000     2.397000000
O     2.799000000    -3.739000000     2.629000000
O    -2.221000000    -7.162000000     1.687000000
H    -2.160000000    -6.852000000     2.591000000
H    -1.607000000    -6.610000000     1.203000000
O     2.887000000    -3.592000000     5.494000000
H     3.046000000    -3.797000000     4.573000000
H     2.592000000    -2.682000000     5.490000000
O     1.315000000    -7.998000000     5.462000000
H     0.821000000    -7.437000000     6.059000000
H     1.604000000    -7.410000000     4.764000000
O     0.651000000    -9.092000000     1.673000000
H     0.009000000    -9.796000000     1.766000000
H     0.322000000    -8.561000000     0.948000000
O    -0.065000000    -6.315000000     0.315000000
H     0.104000000    -5.896000000    -0.530000000
H     0.392000000    -5.764000000     0.951000000
O     1.907000000    -6.817000000     3.007000000
H     1.548000000    -5.930000000     2.990000000
H     1.318000000    -7.324000000     2.448000000
O     3.018000000    -5.405000000     0.466000000
H     2.908000000    -5.041000000     1.344000000
H     3.687000000    -4.854000000     0.060000000
O     0.061000000    -8.582000000    -2.753000000
H    -0.019000000    -9.536000000    -2.726000000
H     0.055000000    -8.315000000    -1.834000000
O     2.981000000   -10.340000000     3.170000000
H     2.134000000   -10.066000000     2.818000000
H     3.524000000    -9.552000000     3.130000000
O     7.475000000    -4.114000000     0.568000000
H     6.802000000    -3.895000000     1.212000000
H     8.063000000    -3.359000000     0.571000000
O     3.700000000    -3.059000000     8.057000000
H     3.053000000    -3.694000000     8.362000000
H     3.723000000    -3.179000000     7.107000000
O     3.561000000    -7.664000000    -1.126000000
H     3.384000000    -7.212000000    -0.301000000
H     2.837000000    -8.283000000    -1.221000000
O    -0.022000000    -4.245000000     6.140000000
H    -0.139000000    -4.910000000     6.819000000
H     0.895000000    -3.981000000     6.220000000
O     6.786000000    -2.204000000     4.537000000
H     6.505000000    -1.309000000     4.346000000
H     6.451000000    -2.722000000     3.805000000
O     6.109000000    -6.168000000     4.103000000
H     6.944000000    -5.716000000     4.221000000
H     5.775000000    -6.290000000     4.992000000
O    -1.284000000    -5.676000000     3.852000000
H    -0.595000000    -5.110000000     3.504000000
H    -1.426000000    -5.360000000     4.745000000
O    -1.337000000    -8.493000000     4.882000000
H    -1.250000000    -7.692000000     4.364000000
H    -0.437000000    -8.749000000     5.081000000
O     5.667000000    -3.830000000     2.686000000
H     5.847000000    -4.668000000     3.111000000
H     4.713000000    -3.789000000     2.632000000
O     4.274000000    -8.034000000     2.523000000
H     3.491000000    -7.484000000     2.556000000
H     4.883000000    -7.620000000     3.135000000
