215
-1438.28827
C     5.110000000     0.606000000    -1.650000000
H     5.307000000     1.484000000    -1.040000000
C     4.091000000     0.542000000    -2.585000000
C     3.859000000    -0.650000000    -3.250000000
H     2.942000000    -0.715000000    -3.829000000
C     2.950000000     1.593000000    -2.702000000
O     3.629000000     2.852000000    -2.431000000
H     2.203000000     1.385000000    -1.921000000
O     2.308000000     1.590000000    -3.974000000
C     0.962000000     1.646000000    -3.973000000
C     0.149000000     0.485000000    -4.030000000
H     0.606000000    -0.494000000    -4.156000000
C    -1.236000000     0.631000000    -3.978000000
O    -1.960000000    -0.492000000    -4.199000000
C    -1.806000000     1.885000000    -3.985000000
C    -3.257000000     2.078000000    -3.959000000
H    -3.601000000     3.078000000    -4.229000000
C    -3.842000000     1.632000000    -2.582000000
C    -3.954000000     2.577000000    -1.582000000
H    -3.663000000     3.566000000    -1.927000000
H    -3.708000000     1.461000000    -4.738000000
C    -1.010000000     2.931000000    -3.743000000
H    -1.517000000     3.875000000    -3.558000000
C     0.338000000     2.875000000    -3.815000000
C     1.184000000     4.131000000    -3.433000000
H     0.569000000     5.005000000    -3.658000000
H     2.066000000     4.297000000    -4.055000000
C     1.690000000     4.176000000    -1.986000000
C     0.855000000     4.817000000    -1.070000000
H    -0.088000000     5.216000000    -1.436000000
C     2.874000000     3.585000000    -1.599000000
C     3.156000000     3.654000000    -0.296000000
H     4.087000000     3.166000000    -0.019000000
C     2.242000000     4.071000000     0.686000000
O     2.568000000     3.829000000     2.063000000
C     1.761000000     2.754000000     2.548000000
C     2.603000000     1.781000000     3.349000000
C     1.878000000     0.850000000     4.115000000
H     0.798000000     0.778000000     4.021000000
C     3.939000000     1.665000000     3.179000000
H     4.456000000     2.465000000     2.655000000
O     0.711000000     3.272000000     3.343000000
H     1.316000000     2.124000000     1.764000000
C     1.187000000     4.864000000     0.237000000
C     0.259000000     5.426000000     1.318000000
H    -0.213000000     6.280000000     0.827000000
H     0.793000000     5.686000000     2.234000000
C    -0.773000000     4.384000000     1.763000000
C    -2.042000000     4.408000000     1.202000000
H    -2.198000000     5.082000000     0.363000000
C    -0.461000000     3.418000000     2.749000000
C    -1.435000000     2.458000000     3.039000000
H    -1.173000000     1.675000000     3.746000000
C    -2.668000000     2.404000000     2.441000000
O    -3.526000000     1.452000000     2.834000000
C    -3.801000000     0.282000000     2.016000000
C    -3.925000000    -1.021000000     2.819000000
C    -3.190000000    -1.197000000     4.061000000
H    -2.764000000    -0.286000000     4.476000000
C    -4.576000000    -2.165000000     2.369000000
H    -5.019000000    -2.202000000     1.377000000
O    -4.987000000     0.542000000     1.228000000
H    -3.076000000     0.033000000     1.227000000
C    -2.936000000     3.341000000     1.448000000
C    -4.321000000     3.318000000     0.842000000
H    -4.747000000     4.226000000     0.410000000
H    -5.031000000     3.056000000     1.630000000
C    -4.385000000     2.277000000    -0.286000000
C    -4.735000000     0.950000000    -0.014000000
C    -4.742000000    -0.019000000    -1.072000000
H    -5.181000000    -0.996000000    -0.889000000
C    -4.325000000     0.291000000    -2.322000000
O    -4.051000000    -0.751000000    -3.160000000
C    -2.674000000    -1.081000000    -3.071000000
H    -2.105000000    -0.660000000    -2.228000000
C    -2.405000000    -2.583000000    -3.177000000
C    -1.234000000    -3.144000000    -3.777000000
H    -0.509000000    -2.466000000    -4.222000000
C    -3.216000000    -3.413000000    -2.443000000
H    -4.037000000    -3.018000000    -1.852000000
C    -2.963000000    -4.751000000    -2.300000000
O    -3.757000000    -5.547000000    -1.608000000
C    -1.807000000    -5.317000000    -2.865000000
H    -1.530000000    -6.351000000    -2.678000000
C    -0.947000000    -4.486000000    -3.619000000
O     0.258000000    -4.952000000    -4.187000000
C     1.197000000    -4.118000000    -4.717000000
C     2.311000000    -3.826000000    -3.942000000
H     2.457000000    -4.305000000    -2.977000000
C     1.079000000    -3.564000000    -6.014000000
H     0.194000000    -3.761000000    -6.615000000
C     2.145000000    -2.833000000    -6.579000000
H     1.956000000    -2.376000000    -7.548000000
C     3.270000000    -2.492000000    -5.754000000
H     4.125000000    -1.852000000    -5.954000000
C     3.365000000    -3.102000000    -4.516000000
O     4.445000000    -2.906000000    -3.695000000
C     4.809000000    -1.686000000    -3.186000000
C     5.945000000    -1.550000000    -2.403000000
H     6.689000000    -2.335000000    -2.293000000
C     6.094000000    -0.395000000    -1.662000000
O     7.249000000    -0.312000000    -0.884000000
C     7.428000000     0.360000000     0.309000000
C     6.439000000     0.394000000     1.331000000
H     5.542000000    -0.192000000     1.147000000
C     8.520000000     1.175000000     0.418000000
H     9.202000000     1.170000000    -0.428000000
C     8.780000000     1.857000000     1.622000000
H     9.709000000     2.373000000     1.852000000
C     7.878000000     1.743000000     2.655000000
H     8.108000000     2.206000000     3.612000000
C     6.661000000     1.077000000     2.533000000
O     6.053000000     0.585000000     3.631000000
C     4.707000000     0.652000000     3.779000000
C     4.036000000    -0.330000000     4.530000000
H     4.590000000    -1.174000000     4.935000000
C     2.652000000    -0.260000000     4.657000000
O     2.024000000    -1.248000000     5.374000000
C     0.780000000    -1.064000000     5.999000000
C    -0.259000000    -1.877000000     5.600000000
H    -0.158000000    -2.560000000     4.760000000
C     0.651000000    -0.189000000     7.100000000
H     1.494000000     0.427000000     7.402000000
C    -0.601000000    -0.056000000     7.714000000
H    -0.801000000     0.720000000     8.448000000
C    -1.667000000    -0.875000000     7.319000000
H    -2.626000000    -0.671000000     7.788000000
C    -1.452000000    -1.792000000     6.263000000
O    -2.496000000    -2.590000000     5.931000000
C    -3.216000000    -2.368000000     4.772000000
C    -3.948000000    -3.472000000     4.378000000
H    -4.026000000    -4.411000000     4.919000000
C    -4.630000000    -3.345000000     3.130000000
O    -5.415000000    -4.440000000     2.767000000
C    -5.601000000    -4.703000000     1.422000000
C    -6.881000000    -4.541000000     0.814000000
H    -7.710000000    -4.159000000     1.403000000
C    -6.999000000    -4.655000000    -0.590000000
H    -7.970000000    -4.424000000    -1.021000000
C    -5.899000000    -4.950000000    -1.369000000
H    -6.034000000    -5.197000000    -2.418000000
C    -4.665000000    -5.064000000    -0.761000000
C    -4.515000000    -5.028000000     0.622000000
H    -3.585000000    -5.243000000     1.142000000
C     2.334000000    -2.135000000    -0.419000000
H     3.398000000    -2.228000000    -0.215000000
C     1.774000000    -0.762000000    -0.402000000
H     2.378000000     0.098000000    -0.124000000
C     0.389000000    -0.675000000    -0.612000000
H    -0.002000000     0.340000000    -0.667000000
C    -0.401000000    -1.785000000    -0.808000000
H    -1.473000000    -1.602000000    -0.795000000
C     0.136000000    -3.066000000    -0.771000000
H    -0.630000000    -3.826000000    -0.895000000
C     1.507000000    -3.276000000    -0.507000000
C     1.997000000    -4.624000000    -0.304000000
O     1.270000000    -5.517000000    -0.697000000
O     3.077000000    -4.828000000     0.087000000
O     3.748000000    -7.008000000     1.484000000
H     3.440000000    -7.562000000     0.767000000
H     3.734000000    -6.121000000     1.123000000
O    -1.001000000    -6.257000000     0.623000000
H    -1.249000000    -5.503000000     1.158000000
H    -0.270000000    -5.943000000     0.091000000
O     3.275000000    -3.383000000     2.576000000
H     4.194000000    -3.282000000     2.822000000
H     3.287000000    -4.015000000     1.858000000
O     5.759000000    -5.873000000    -5.123000000
H     5.726000000    -5.325000000    -4.339000000
H     5.639000000    -6.765000000    -4.797000000
O     0.105000000    -9.937000000    -2.499000000
H     0.334000000    -9.035000000    -2.276000000
H    -0.852000000    -9.944000000    -2.514000000
O     0.571000000    -7.233000000    -2.420000000
H     0.856000000    -6.902000000    -3.272000000
H     0.742000000    -6.512000000    -1.814000000
O     2.274000000    -8.299000000    -0.259000000
H     1.592000000    -7.681000000    -0.520000000
H     1.834000000    -9.149000000    -0.241000000
O     4.933000000    -5.224000000    -2.074000000
H     4.098000000    -5.346000000    -1.620000000
H     4.963000000    -4.288000000    -2.271000000
O    -1.342000000    -5.124000000     3.969000000
H    -1.706000000    -5.975000000     3.728000000
H    -1.778000000    -4.503000000     3.386000000
O     4.503000000    -6.307000000     4.103000000
H     4.631000000    -5.366000000     4.221000000
H     3.927000000    -6.377000000     3.341000000
O     2.724000000    -4.089000000     5.150000000
H     2.693000000    -4.061000000     4.193000000
H     1.998000000    -4.662000000     5.396000000
O     0.727000000    -2.097000000     2.075000000
H     0.821000000    -2.032000000     1.125000000
H     1.624000000    -2.170000000     2.401000000
O     5.905000000    -3.568000000     3.384000000
H     6.657000000    -3.048000000     3.669000000
H     6.030000000    -3.674000000     2.441000000
O    -2.895000000    -7.984000000     0.167000000
H    -2.314000000    -7.264000000    -0.075000000
H    -2.508000000    -8.348000000     0.963000000
O     6.600000000    -7.753000000     2.356000000
H     6.209000000    -7.473000000     1.528000000
H     6.150000000    -7.232000000     3.021000000
O    -1.614000000    -3.593000000     1.781000000
H    -0.691000000    -3.410000000     1.958000000
H    -1.937000000    -2.800000000     1.353000000
O     4.901000000    -8.902000000    -1.324000000
H     4.507000000    -9.745000000    -1.099000000
H     4.183000000    -8.274000000    -1.249000000
O     6.563000000    -4.710000000     0.891000000
H     7.313000000    -4.431000000     0.366000000
H     5.926000000    -5.024000000     0.250000000
O     3.079000000   -10.668000000     1.457000000
H     2.387000000   -10.870000000     0.827000000
H     3.395000000    -9.803000000     1.197000000
