215
-1421.31980
C     4.707000000    -1.334000000     0.093000000
H     4.721000000    -0.404000000     0.656000000
C     4.322000000    -1.319000000    -1.253000000
C     4.103000000    -2.466000000    -1.922000000
H     3.652000000    -2.444000000    -2.911000000
C     3.784000000    -0.002000000    -1.743000000
O     4.519000000     1.155000000    -1.276000000
H     2.733000000    -0.023000000    -1.417000000
O     3.775000000    -0.083000000    -3.190000000
C     2.602000000     0.384000000    -3.784000000
C     1.633000000    -0.523000000    -4.127000000
H     1.953000000    -1.559000000    -4.060000000
C     0.388000000    -0.033000000    -4.534000000
O    -0.604000000    -0.920000000    -4.961000000
C     0.130000000     1.345000000    -4.569000000
C    -1.124000000     1.953000000    -5.054000000
H    -0.960000000     2.941000000    -5.490000000
C    -2.214000000     1.963000000    -3.952000000
C    -2.352000000     3.151000000    -3.187000000
H    -1.803000000     4.063000000    -3.406000000
H    -1.521000000     1.448000000    -5.937000000
C     1.130000000     2.207000000    -4.174000000
H     0.830000000     3.249000000    -4.093000000
C     2.333000000     1.741000000    -3.727000000
C     3.332000000     2.752000000    -3.309000000
H     3.141000000     3.712000000    -3.792000000
H     4.321000000     2.386000000    -3.590000000
C     3.118000000     2.973000000    -1.816000000
C     2.321000000     4.066000000    -1.379000000
H     1.871000000     4.716000000    -2.125000000
C     3.715000000     2.163000000    -0.845000000
C     3.626000000     2.392000000     0.519000000
H     4.191000000     1.801000000     1.235000000
C     2.857000000     3.459000000     0.938000000
O     2.712000000     3.685000000     2.275000000
C     1.568000000     2.971000000     2.800000000
C     1.910000000     2.308000000     4.157000000
C     0.908000000     2.052000000     5.118000000
H    -0.117000000     2.319000000     4.875000000
C     3.186000000     1.832000000     4.441000000
H     4.013000000     2.062000000     3.774000000
O     0.458000000     3.919000000     2.931000000
H     1.337000000     2.210000000     2.040000000
C     2.235000000     4.317000000    -0.012000000
C     1.261000000     5.437000000     0.407000000
H     1.293000000     6.187000000    -0.386000000
H     1.602000000     5.923000000     1.323000000
C    -0.114000000     4.828000000     0.690000000
C    -1.123000000     4.951000000    -0.212000000
H    -0.848000000     5.448000000    -1.139000000
C    -0.448000000     4.191000000     1.936000000
C    -1.725000000     3.650000000     2.117000000
H    -1.870000000     3.008000000     2.982000000
C    -2.696000000     3.789000000     1.104000000
O    -3.774000000     3.015000000     1.299000000
C    -3.735000000     1.727000000     0.616000000
C    -4.209000000     0.526000000     1.500000000
C    -3.603000000     0.389000000     2.662000000
H    -2.778000000     1.062000000     2.881000000
C    -5.159000000    -0.420000000     1.108000000
H    -5.650000000    -0.360000000     0.141000000
O    -4.590000000     1.860000000    -0.568000000
H    -2.703000000     1.532000000     0.289000000
C    -2.353000000     4.397000000    -0.076000000
C    -3.261000000     4.392000000    -1.276000000
H    -3.123000000     5.271000000    -1.909000000
H    -4.307000000     4.511000000    -0.988000000
C    -3.201000000     3.162000000    -2.075000000
C    -3.875000000     1.976000000    -1.787000000
C    -3.746000000     0.871000000    -2.550000000
H    -4.305000000    -0.028000000    -2.304000000
C    -2.988000000     0.847000000    -3.682000000
O    -2.735000000    -0.335000000    -4.299000000
C    -1.571000000    -1.147000000    -3.980000000
H    -1.047000000    -0.857000000    -3.058000000
C    -1.949000000    -2.617000000    -3.731000000
C    -0.955000000    -3.547000000    -3.884000000
H    -0.085000000    -3.210000000    -4.442000000
C    -3.134000000    -3.056000000    -3.101000000
H    -3.960000000    -2.357000000    -2.993000000
C    -3.348000000    -4.411000000    -2.790000000
O    -4.439000000    -4.857000000    -2.231000000
C    -2.398000000    -5.385000000    -3.101000000
H    -2.587000000    -6.433000000    -2.885000000
C    -1.177000000    -4.939000000    -3.658000000
O    -0.177000000    -5.860000000    -3.844000000
C     1.166000000    -5.550000000    -4.053000000
C     1.993000000    -5.370000000    -2.944000000
H     1.564000000    -5.455000000    -1.949000000
C     1.657000000    -5.425000000    -5.314000000
H     1.011000000    -5.600000000    -6.171000000
C     2.959000000    -5.032000000    -5.573000000
H     3.324000000    -4.876000000    -6.585000000
C     3.816000000    -4.900000000    -4.424000000
H     4.862000000    -4.685000000    -4.628000000
C     3.295000000    -5.010000000    -3.110000000
O     4.007000000    -4.883000000    -1.998000000
C     4.312000000    -3.683000000    -1.317000000
C     4.756000000    -3.730000000     0.018000000
H     4.836000000    -4.674000000     0.553000000
C     4.999000000    -2.579000000     0.706000000
O     5.281000000    -2.603000000     2.036000000
C     5.669000000    -1.502000000     2.826000000
C     4.822000000    -1.069000000     3.885000000
H     3.828000000    -1.510000000     3.888000000
C     7.025000000    -1.192000000     2.806000000
H     7.773000000    -1.640000000     2.158000000
C     7.461000000    -0.151000000     3.672000000
H     8.494000000     0.177000000     3.762000000
C     6.579000000     0.360000000     4.694000000
H     6.962000000     1.130000000     5.360000000
C     5.282000000    -0.120000000     4.801000000
O     4.635000000     0.429000000     5.865000000
C     3.469000000     1.190000000     5.656000000
C     2.558000000     1.067000000     6.672000000
H     2.775000000     0.450000000     7.540000000
C     1.259000000     1.438000000     6.377000000
O     0.340000000     1.033000000     7.283000000
C    -1.022000000     1.022000000     6.966000000
C    -1.399000000     0.092000000     6.016000000
H    -0.653000000    -0.613000000     5.659000000
C    -1.822000000     2.075000000     7.260000000
H    -1.407000000     2.837000000     7.915000000
C    -3.092000000     2.170000000     6.660000000
H    -3.706000000     3.039000000     6.879000000
C    -3.488000000     1.190000000     5.776000000
H    -4.378000000     1.296000000     5.160000000
C    -2.615000000     0.132000000     5.420000000
O    -2.993000000    -0.892000000     4.577000000
C    -3.771000000    -0.693000000     3.509000000
C    -4.725000000    -1.636000000     3.139000000
H    -4.921000000    -2.440000000     3.844000000
C    -5.366000000    -1.527000000     1.929000000
O    -6.200000000    -2.604000000     1.649000000
C    -6.261000000    -3.006000000     0.365000000
C    -7.557000000    -3.008000000    -0.163000000
H    -8.279000000    -2.415000000     0.394000000
C    -7.790000000    -3.407000000    -1.474000000
H    -8.798000000    -3.269000000    -1.858000000
C    -6.679000000    -4.052000000    -2.084000000
H    -6.872000000    -4.455000000    -3.075000000
C    -5.327000000    -4.091000000    -1.522000000
C    -5.198000000    -3.692000000    -0.178000000
H    -4.326000000    -3.869000000     0.447000000
C     1.335000000    -2.850000000     1.886000000
H     2.223000000    -3.256000000     2.364000000
C     1.296000000    -1.755000000     1.053000000
H     2.239000000    -1.406000000     0.641000000
C     0.014000000    -1.247000000     0.565000000
H     0.013000000    -0.587000000    -0.210000000
C    -1.195000000    -1.737000000     1.046000000
H    -2.174000000    -1.313000000     0.835000000
C    -1.131000000    -2.767000000     2.035000000
H    -2.035000000    -3.166000000     2.488000000
C     0.100000000    -3.334000000     2.447000000
C     0.195000000    -4.368000000     3.457000000
O    -0.841000000    -4.867000000     3.816000000
O     1.197000000    -4.974000000     3.699000000
O    -1.103000000    -7.576000000    -0.671000000
H    -0.580000000    -7.840000000    -1.428000000
H    -0.584000000    -6.892000000    -0.249000000
O     2.783000000    -4.014000000     5.560000000
H     2.289000000    -4.300000000     4.791000000
H     3.659000000    -4.376000000     5.429000000
O     1.403000000    -9.140000000     2.722000000
H     0.672000000    -9.556000000     2.266000000
H     1.965000000    -8.810000000     2.021000000
O    -2.990000000    -9.013000000     3.871000000
H    -2.128000000    -8.601000000     3.820000000
H    -3.520000000    -8.398000000     4.378000000
O    -0.757000000    -7.541000000     3.851000000
H    -0.682000000    -6.591000000     3.940000000
H     0.100000000    -7.820000000     3.528000000
O     0.084000000    -5.265000000     0.323000000
H     0.960000000    -5.311000000     0.707000000
H    -0.240000000    -4.398000000     0.571000000
O    -0.060000000    -6.217000000     6.579000000
H    -0.450000000    -5.972000000     5.740000000
H    -0.207000000    -5.457000000     7.142000000
O     2.704000000    -5.636000000     1.767000000
H     2.088000000    -5.291000000     2.413000000
H     3.523000000    -5.746000000     2.251000000
O    -4.658000000    -5.293000000     2.862000000
H    -4.209000000    -4.832000000     3.571000000
H    -3.952000000    -5.639000000     2.316000000
O     2.901000000    -8.104000000     0.723000000
H     2.610000000    -7.212000000     0.912000000
H     3.542000000    -8.003000000     0.019000000
O     2.352000000    -7.344000000     6.109000000
H     2.992000000    -6.863000000     5.584000000
H     1.678000000    -6.697000000     6.317000000
O     0.375000000    -2.402000000     8.886000000
H     0.478000000    -2.353000000     7.936000000
H     0.240000000    -3.333000000     9.065000000
O    -2.302000000    -3.112000000     7.160000000
H    -2.226000000    -2.829000000     8.071000000
H    -1.415000000    -3.026000000     6.808000000
O     5.254000000    -5.386000000     4.852000000
H     6.103000000    -4.959000000     4.738000000
H     5.013000000    -5.678000000     3.973000000
O    -3.100000000    -4.633000000     5.182000000
H    -2.284000000    -4.652000000     4.682000000
H    -2.901000000    -4.089000000     5.945000000
O    -2.683000000    -5.914000000     1.369000000
H    -2.350000000    -6.080000000     0.487000000
H    -1.907000000    -5.948000000     1.929000000
O    -4.337000000    -7.364000000     5.564000000
H    -5.287000000    -7.454000000     5.488000000
H    -4.167000000    -6.443000000     5.364000000
O    -0.408000000    -8.972000000     6.313000000
H    -0.364000000    -9.176000000     5.379000000
H    -0.260000000    -8.027000000     6.359000000
O     0.247000000    -3.261000000     6.335000000
H     1.199000000    -3.353000000     6.291000000
H    -0.076000000    -3.752000000     5.579000000
