215
-1469.14745
C     4.658000000    -1.126000000    -0.962000000
H     4.803000000    -0.337000000    -0.229000000
C     3.999000000    -0.911000000    -2.149000000
C     3.854000000    -1.980000000    -3.043000000
H     3.241000000    -1.762000000    -3.913000000
C     3.253000000     0.415000000    -2.436000000
O     4.014000000     1.616000000    -2.103000000
H     2.331000000     0.449000000    -1.837000000
O     3.032000000     0.578000000    -3.855000000
C     1.780000000     1.025000000    -4.160000000
C     0.891000000    -0.031000000    -4.554000000
H     1.165000000    -1.083000000    -4.573000000
C    -0.456000000     0.374000000    -4.636000000
O    -1.372000000    -0.666000000    -4.808000000
C    -0.818000000     1.728000000    -4.496000000
C    -2.313000000     2.170000000    -4.647000000
H    -2.299000000     3.238000000    -4.872000000
C    -3.158000000     1.882000000    -3.402000000
C    -3.320000000     2.997000000    -2.602000000
H    -2.912000000     3.967000000    -2.875000000
H    -2.701000000     1.641000000    -5.520000000
C     0.084000000     2.750000000    -4.273000000
H    -0.240000000     3.763000000    -4.050000000
C     1.388000000     2.384000000    -4.044000000
C     2.286000000     3.521000000    -3.577000000
H     1.824000000     4.480000000    -3.820000000
H     3.238000000     3.561000000    -4.110000000
C     2.564000000     3.493000000    -2.088000000
C     1.926000000     4.483000000    -1.364000000
H     1.266000000     5.151000000    -1.910000000
C     3.409000000     2.555000000    -1.405000000
C     3.620000000     2.651000000    -0.029000000
H     4.267000000     1.994000000     0.547000000
C     2.953000000     3.652000000     0.676000000
O     3.003000000     3.562000000     2.095000000
C     1.957000000     2.744000000     2.771000000
C     2.419000000     1.983000000     4.021000000
C     1.658000000     1.930000000     5.242000000
H     0.778000000     2.559000000     5.351000000
C     3.553000000     1.183000000     3.853000000
H     4.118000000     1.199000000     2.924000000
O     0.912000000     3.686000000     3.198000000
H     1.501000000     2.050000000     2.050000000
C     2.083000000     4.539000000     0.044000000
C     1.188000000     5.448000000     0.809000000
H     0.937000000     6.305000000     0.181000000
H     1.741000000     5.756000000     1.699000000
C    -0.109000000     4.695000000     1.169000000
C    -1.243000000     4.658000000     0.301000000
H    -1.165000000     5.206000000    -0.635000000
C    -0.179000000     3.947000000     2.435000000
C    -1.335000000     3.274000000     2.757000000
H    -1.366000000     2.625000000     3.628000000
C    -2.444000000     3.362000000     1.922000000
O    -3.544000000     2.546000000     2.272000000
C    -3.578000000     1.325000000     1.520000000
C    -3.920000000     0.196000000     2.506000000
C    -3.409000000     0.279000000     3.817000000
H    -2.786000000     1.132000000     4.077000000
C    -4.797000000    -0.810000000     2.158000000
H    -5.274000000    -0.828000000     1.182000000
O    -4.576000000     1.548000000     0.471000000
H    -2.618000000     1.100000000     1.032000000
C    -2.434000000     4.008000000     0.698000000
C    -3.561000000     4.145000000    -0.265000000
H    -3.393000000     5.079000000    -0.806000000
H    -4.534000000     4.211000000     0.227000000
C    -3.651000000     2.930000000    -1.234000000
C    -4.082000000     1.722000000    -0.783000000
C    -4.171000000     0.552000000    -1.601000000
H    -4.636000000    -0.360000000    -1.234000000
C    -3.657000000     0.610000000    -2.892000000
O    -3.508000000    -0.459000000    -3.693000000
C    -2.206000000    -1.025000000    -3.578000000
H    -1.834000000    -0.498000000    -2.687000000
C    -2.129000000    -2.512000000    -3.456000000
C    -1.390000000    -3.360000000    -4.301000000
H    -0.844000000    -2.912000000    -5.128000000
C    -2.855000000    -3.086000000    -2.375000000
H    -3.510000000    -2.440000000    -1.797000000
C    -2.742000000    -4.470000000    -2.111000000
O    -3.515000000    -5.059000000    -1.098000000
C    -1.902000000    -5.250000000    -2.883000000
H    -1.827000000    -6.288000000    -2.567000000
C    -1.272000000    -4.753000000    -4.040000000
O    -0.344000000    -5.544000000    -4.707000000
C     0.923000000    -5.095000000    -5.062000000
C     1.850000000    -4.715000000    -4.103000000
H     1.632000000    -4.584000000    -3.046000000
C     1.228000000    -4.996000000    -6.423000000
H     0.462000000    -5.134000000    -7.183000000
C     2.553000000    -4.814000000    -6.849000000
H     2.753000000    -4.915000000    -7.912000000
C     3.534000000    -4.559000000    -5.913000000
H     4.548000000    -4.316000000    -6.219000000
C     3.176000000    -4.481000000    -4.532000000
O     4.229000000    -4.255000000    -3.670000000
C     4.284000000    -3.187000000    -2.765000000
C     4.967000000    -3.468000000    -1.574000000
H     5.161000000    -4.513000000    -1.348000000
C     5.172000000    -2.416000000    -0.656000000
O     5.584000000    -2.703000000     0.573000000
C     6.039000000    -1.805000000     1.526000000
C     5.260000000    -1.529000000     2.658000000
H     4.301000000    -1.963000000     2.928000000
C     7.100000000    -0.987000000     1.210000000
H     7.653000000    -1.166000000     0.291000000
C     7.636000000    -0.203000000     2.245000000
H     8.609000000     0.264000000     2.119000000
C     6.943000000    -0.021000000     3.490000000
H     7.451000000     0.506000000     4.294000000
C     5.748000000    -0.666000000     3.629000000
O     4.970000000    -0.494000000     4.707000000
C     3.893000000     0.324000000     4.904000000
C     3.203000000     0.271000000     6.086000000
H     3.483000000    -0.279000000     6.980000000
C     2.000000000     0.984000000     6.215000000
O     1.214000000     0.902000000     7.353000000
C    -0.194000000     1.025000000     7.234000000
C    -0.894000000     0.016000000     6.554000000
H    -0.358000000    -0.894000000     6.295000000
C    -0.746000000     2.193000000     7.527000000
H    -0.141000000     2.990000000     7.953000000
C    -2.119000000     2.376000000     7.329000000
H    -2.702000000     3.286000000     7.449000000
C    -2.882000000     1.350000000     6.775000000
H    -3.884000000     1.560000000     6.409000000
C    -2.231000000     0.145000000     6.441000000
O    -2.950000000    -0.854000000     5.882000000
C    -3.618000000    -0.799000000     4.679000000
C    -4.498000000    -1.842000000     4.282000000
H    -4.775000000    -2.597000000     5.013000000
C    -4.932000000    -1.878000000     2.966000000
O    -5.759000000    -2.928000000     2.561000000
C    -5.821000000    -3.445000000     1.354000000
C    -7.042000000    -3.418000000     0.615000000
H    -7.925000000    -2.981000000     1.073000000
C    -7.111000000    -4.068000000    -0.613000000
H    -8.036000000    -4.224000000    -1.162000000
C    -5.897000000    -4.639000000    -1.191000000
H    -5.902000000    -5.155000000    -2.147000000
C    -4.652000000    -4.454000000    -0.553000000
C    -4.601000000    -3.850000000     0.664000000
H    -3.712000000    -3.911000000     1.286000000
C     0.907000000    -2.501000000    -0.045000000
H     1.035000000    -3.460000000    -0.540000000
C     0.393000000    -1.359000000    -0.703000000
H     0.231000000    -1.478000000    -1.772000000
C     0.086000000    -0.172000000     0.058000000
H    -0.340000000     0.697000000    -0.511000000
C     0.338000000    -0.186000000     1.449000000
H     0.184000000     0.674000000     2.096000000
C     0.860000000    -1.333000000     2.069000000
H     0.916000000    -1.270000000     3.153000000
C     1.127000000    -2.483000000     1.340000000
C     1.537000000    -3.705000000     2.100000000
O     2.111000000    -3.674000000     3.170000000
O     1.277000000    -4.751000000     1.537000000
O     5.314000000    -5.403000000     5.673000000
H     4.801000000    -4.614000000     5.848000000
H     5.989000000    -5.406000000     6.351000000
O    -2.441000000    -5.300000000     6.003000000
H    -2.015000000    -6.047000000     5.582000000
H    -3.132000000    -5.043000000     5.393000000
O    -1.194000000    -5.985000000     1.570000000
H    -0.439000000    -5.397000000     1.571000000
H    -1.249000000    -6.302000000     0.668000000
O    -3.997000000    -6.797000000     2.168000000
H    -3.682000000    -7.701000000     2.151000000
H    -3.204000000    -6.270000000     2.271000000
O     3.399000000    -5.517000000     0.393000000
H     2.627000000    -5.275000000     0.905000000
H     4.080000000    -5.675000000     1.047000000
O     0.701000000    -6.379000000    -0.396000000
H     1.177000000    -5.992000000     0.339000000
H     1.370000000    -6.850000000    -0.893000000
O     7.353000000    -5.576000000     2.974000000
H     7.788000000    -5.383000000     3.804000000
H     6.481000000    -5.191000000     3.065000000
O     3.063000000    -7.443000000    -1.613000000
H     3.488000000    -6.777000000    -1.072000000
H     3.569000000    -7.450000000    -2.425000000
O     3.593000000   -10.052000000     2.740000000
H     3.461000000   -10.220000000     3.673000000
H     3.095000000    -9.253000000     2.567000000
O    -1.345000000    -9.341000000    -0.683000000
H    -0.695000000    -8.752000000    -1.067000000
H    -1.780000000    -9.741000000    -1.436000000
O     1.640000000    -7.975000000     2.489000000
H     0.720000000    -7.955000000     2.751000000
H     1.765000000    -7.167000000     1.992000000
O    -0.558000000    -3.731000000     7.066000000
H    -1.274000000    -4.209000000     6.649000000
H    -0.993000000    -3.099000000     7.638000000
O     1.071000000    -5.023000000     5.093000000
H     0.859000000    -4.284000000     5.663000000
H     1.461000000    -4.623000000     4.316000000
O     2.263000000    -3.750000000     7.939000000
H     2.806000000    -3.320000000     7.279000000
H     1.432000000    -3.917000000     7.494000000
O    -0.930000000    -6.928000000     4.364000000
H    -0.258000000    -6.299000000     4.626000000
H    -1.083000000    -6.744000000     3.437000000
O     0.691000000    -9.453000000     6.032000000
H    -0.210000000    -9.330000000     5.735000000
H     0.988000000    -8.573000000     6.267000000
O     4.450000000    -5.222000000     2.904000000
H     4.563000000    -5.332000000     3.848000000
H     3.733000000    -4.593000000     2.821000000
O     3.745000000    -2.955000000     5.579000000
H     4.056000000    -2.051000000     5.629000000
H     3.129000000    -2.956000000     4.846000000
O     1.791000000    -7.058000000     6.865000000
H     1.793000000    -6.373000000     6.197000000
H     2.447000000    -6.773000000     7.502000000
