215
-1457.08329
C     4.991000000    -1.504000000    -0.750000000
H     5.197000000    -0.840000000     0.085000000
C     4.437000000    -0.974000000    -1.916000000
C     4.092000000    -1.847000000    -2.936000000
H     3.689000000    -1.456000000    -3.867000000
C     3.828000000     0.470000000    -1.913000000
O     4.611000000     1.286000000    -1.051000000
H     2.815000000     0.339000000    -1.503000000
O     3.724000000     1.019000000    -3.238000000
C     2.583000000     1.702000000    -3.542000000
C     1.509000000     1.022000000    -4.039000000
H     1.561000000    -0.045000000    -4.244000000
C     0.333000000     1.690000000    -4.428000000
O    -0.669000000     0.809000000    -4.839000000
C     0.192000000     3.014000000    -4.004000000
C    -1.209000000     3.683000000    -4.019000000
H    -1.075000000     4.745000000    -4.233000000
C    -2.169000000     3.357000000    -2.827000000
C    -2.453000000     4.240000000    -1.797000000
H    -1.840000000     5.137000000    -1.839000000
H    -1.826000000     3.441000000    -4.887000000
C     1.226000000     3.639000000    -3.377000000
H     1.062000000     4.659000000    -3.040000000
C     2.419000000     2.994000000    -3.120000000
C     3.521000000     3.760000000    -2.340000000
H     3.383000000     4.816000000    -2.581000000
H     4.538000000     3.566000000    -2.689000000
C     3.422000000     3.482000000    -0.808000000
C     2.642000000     4.289000000     0.037000000
H     2.103000000     5.122000000    -0.408000000
C     3.978000000     2.282000000    -0.300000000
C     4.036000000     2.072000000     1.014000000
H     4.525000000     1.173000000     1.383000000
C     3.164000000     2.828000000     1.821000000
O     3.032000000     2.366000000     3.068000000
C     1.746000000     1.785000000     3.484000000
C     2.064000000     0.689000000     4.508000000
C     1.123000000     0.385000000     5.469000000
H     0.190000000     0.925000000     5.605000000
C     3.204000000    -0.112000000     4.364000000
H     3.980000000     0.171000000     3.657000000
O     0.947000000     2.801000000     4.060000000
H     1.154000000     1.342000000     2.671000000
C     2.499000000     3.996000000     1.382000000
C     1.675000000     4.886000000     2.305000000
H     1.617000000     5.873000000     1.839000000
H     2.176000000     4.998000000     3.269000000
C     0.266000000     4.313000000     2.419000000
C    -0.751000000     4.776000000     1.578000000
H    -0.415000000     5.444000000     0.790000000
C    -0.033000000     3.308000000     3.300000000
C    -1.243000000     2.635000000     3.282000000
H    -1.449000000     1.774000000     3.913000000
C    -2.262000000     3.127000000     2.503000000
O    -3.431000000     2.370000000     2.458000000
C    -3.555000000     1.444000000     1.386000000
C    -4.030000000     0.073000000     1.810000000
C    -3.587000000    -0.502000000     3.033000000
H    -2.821000000    -0.025000000     3.640000000
C    -4.642000000    -0.814000000     0.939000000
H    -5.048000000    -0.315000000     0.063000000
O    -4.396000000     2.091000000     0.433000000
H    -2.582000000     1.289000000     0.898000000
C    -2.067000000     4.137000000     1.577000000
C    -3.080000000     4.724000000     0.617000000
H    -2.736000000     5.738000000     0.404000000
H    -4.024000000     4.874000000     1.145000000
C    -3.219000000     3.893000000    -0.679000000
C    -3.815000000     2.655000000    -0.694000000
C    -3.804000000     1.887000000    -1.833000000
H    -4.262000000     0.901000000    -1.853000000
C    -2.914000000     2.184000000    -2.866000000
O    -2.777000000     1.287000000    -3.940000000
C    -1.680000000     0.402000000    -3.910000000
H    -1.315000000     0.550000000    -2.883000000
C    -2.097000000    -1.066000000    -4.232000000
C    -1.106000000    -2.046000000    -4.468000000
H    -0.042000000    -1.837000000    -4.390000000
C    -3.484000000    -1.438000000    -4.087000000
H    -4.288000000    -0.724000000    -3.927000000
C    -3.775000000    -2.752000000    -4.270000000
O    -5.122000000    -3.071000000    -4.177000000
C    -2.805000000    -3.754000000    -4.537000000
H    -3.085000000    -4.790000000    -4.710000000
C    -1.497000000    -3.365000000    -4.611000000
O    -0.550000000    -4.372000000    -4.696000000
C     0.703000000    -4.240000000    -5.231000000
C     1.722000000    -4.203000000    -4.237000000
H     1.610000000    -4.266000000    -3.158000000
C     0.999000000    -4.143000000    -6.577000000
H     0.224000000    -4.025000000    -7.330000000
C     2.354000000    -4.074000000    -7.059000000
H     2.714000000    -4.061000000    -8.084000000
C     3.380000000    -4.065000000    -6.095000000
H     4.430000000    -4.004000000    -6.369000000
C     3.009000000    -4.029000000    -4.730000000
O     4.033000000    -4.096000000    -3.810000000
C     4.197000000    -3.212000000    -2.774000000
C     4.699000000    -3.667000000    -1.587000000
H     4.828000000    -4.739000000    -1.461000000
C     5.042000000    -2.810000000    -0.541000000
O     5.460000000    -3.320000000     0.692000000
C     5.945000000    -2.626000000     1.783000000
C     5.031000000    -2.536000000     2.808000000
H     4.042000000    -2.980000000     2.726000000
C     7.222000000    -2.195000000     1.911000000
H     8.049000000    -2.531000000     1.291000000
C     7.577000000    -1.581000000     3.159000000
H     8.609000000    -1.258000000     3.262000000
C     6.635000000    -1.492000000     4.229000000
H     6.856000000    -1.097000000     5.217000000
C     5.345000000    -1.946000000     4.043000000
O     4.452000000    -2.048000000     5.088000000
C     3.338000000    -1.218000000     5.180000000
C     2.381000000    -1.611000000     6.080000000
H     2.461000000    -2.488000000     6.718000000
C     1.291000000    -0.714000000     6.295000000
O     0.340000000    -1.103000000     7.208000000
C    -0.942000000    -0.973000000     6.914000000
C    -1.639000000    -1.715000000     5.894000000
H    -1.171000000    -2.425000000     5.218000000
C    -1.661000000     0.027000000     7.674000000
H    -1.065000000     0.614000000     8.368000000
C    -2.970000000     0.362000000     7.321000000
H    -3.457000000     1.162000000     7.873000000
C    -3.655000000    -0.436000000     6.363000000
H    -4.686000000    -0.291000000     6.051000000
C    -2.999000000    -1.465000000     5.708000000
O    -3.672000000    -2.155000000     4.743000000
C    -4.016000000    -1.762000000     3.482000000
C    -4.725000000    -2.568000000     2.621000000
H    -5.075000000    -3.496000000     3.063000000
C    -5.089000000    -2.123000000     1.352000000
O    -5.904000000    -2.942000000     0.567000000
C    -6.310000000    -2.654000000    -0.735000000
C    -7.677000000    -2.650000000    -0.995000000
H    -8.352000000    -2.660000000    -0.143000000
C    -8.188000000    -2.519000000    -2.311000000
H    -9.257000000    -2.355000000    -2.419000000
C    -7.296000000    -2.596000000    -3.378000000
H    -7.674000000    -2.407000000    -4.379000000
C    -5.950000000    -2.789000000    -3.117000000
C    -5.422000000    -2.813000000    -1.788000000
H    -4.397000000    -3.097000000    -1.562000000
C     1.678000000    -3.026000000     0.287000000
H     2.109000000    -3.696000000    -0.453000000
C     1.319000000    -1.794000000    -0.177000000
H     1.364000000    -1.552000000    -1.236000000
C     0.737000000    -0.791000000     0.595000000
H     0.488000000     0.143000000     0.103000000
C     0.461000000    -1.108000000     1.968000000
H     0.008000000    -0.314000000     2.555000000
C     0.790000000    -2.381000000     2.474000000
H     0.592000000    -2.605000000     3.519000000
C     1.388000000    -3.311000000     1.614000000
C     1.683000000    -4.711000000     2.074000000
O     1.226000000    -5.117000000     3.111000000
O     2.230000000    -5.500000000     1.334000000
O    -1.697000000    -9.174000000    -0.340000000
H    -1.026000000    -8.624000000     0.065000000
H    -1.693000000    -9.978000000     0.178000000
O    -1.337000000    -5.067000000     3.471000000
H    -0.444000000    -4.993000000     3.133000000
H    -1.226000000    -5.337000000     4.383000000
O     4.526000000    -6.133000000     2.514000000
H     5.072000000    -6.216000000     1.733000000
H     3.638000000    -6.016000000     2.175000000
O     0.272000000    -7.571000000     6.356000000
H     0.710000000    -6.755000000     6.113000000
H     0.955000000    -8.238000000     6.288000000
O    -0.036000000    -7.301000000     0.740000000
H    -0.538000000    -6.610000000     0.307000000
H     0.733000000    -6.854000000     1.092000000
O     2.958000000    -6.976000000    -0.664000000
H     3.167000000    -7.787000000    -0.200000000
H     2.732000000    -6.356000000     0.028000000
O     7.539000000    -5.062000000     2.887000000
H     7.014000000    -4.667000000     2.191000000
H     7.167000000    -5.937000000     3.001000000
O     5.241000000    -7.702000000     4.598000000
H     5.094000000    -7.085000000     3.882000000
H     6.185000000    -7.859000000     4.590000000
O     2.249000000    -7.446000000     3.590000000
H     2.067000000    -6.558000000     3.284000000
H     3.051000000    -7.361000000     4.106000000
O     3.237000000    -9.151000000     1.403000000
H     3.031000000    -8.488000000     2.061000000
H     3.965000000    -9.645000000     1.780000000
O     0.008000000    -9.074000000     2.814000000
H    -0.043000000    -8.676000000     1.945000000
H     0.651000000    -8.542000000     3.284000000
O     1.348000000    -5.160000000     5.853000000
H     1.282000000    -4.913000000     4.931000000
H     2.283000000    -5.105000000     6.050000000
O    -1.365000000    -5.211000000    -0.289000000
H    -1.381000000    -4.259000000    -0.389000000
H    -1.088000000    -5.537000000    -1.146000000
O     6.073000000    -6.595000000     0.188000000
H     6.219000000    -6.039000000    -0.577000000
H     6.097000000    -7.488000000    -0.156000000
O    -2.094000000    -6.172000000     6.441000000
H    -2.367000000    -6.155000000     7.358000000
H    -1.286000000    -6.686000000     6.442000000
O    -1.868000000    -2.513000000    -0.105000000
H    -2.410000000    -2.685000000     0.665000000
H    -1.096000000    -2.065000000     0.241000000
O    -3.316000000    -5.482000000     1.701000000
H    -2.795000000    -5.260000000     2.473000000
H    -2.670000000    -5.622000000     1.009000000
O     4.018000000    -5.007000000     5.949000000
H     4.500000000    -5.831000000     5.874000000
H     4.676000000    -4.330000000     5.791000000
O    -0.406000000    -6.419000000    -2.475000000
H     0.228000000    -7.134000000    -2.432000000
H    -0.827000000    -6.523000000    -3.328000000
