215
-1444.13269
C     4.479000000    -1.252000000    -1.241000000
H     4.367000000    -0.543000000    -0.424000000
C     4.003000000    -0.927000000    -2.506000000
C     3.910000000    -1.889000000    -3.532000000
H     3.479000000    -1.741000000    -4.519000000
C     3.368000000     0.436000000    -2.778000000
O     4.190000000     1.532000000    -2.301000000
H     2.460000000     0.391000000    -2.159000000
O     2.910000000     0.762000000    -4.162000000
C     1.599000000     1.137000000    -4.253000000
C     0.572000000     0.185000000    -4.410000000
H     0.786000000    -0.879000000    -4.461000000
C    -0.746000000     0.598000000    -4.450000000
O    -1.670000000    -0.415000000    -4.639000000
C    -1.060000000     1.935000000    -4.239000000
C    -2.484000000     2.405000000    -4.365000000
H    -2.505000000     3.455000000    -4.665000000
C    -3.215000000     2.135000000    -3.028000000
C    -3.083000000     3.246000000    -2.136000000
H    -2.529000000     4.138000000    -2.414000000
H    -2.891000000     1.893000000    -5.239000000
C    -0.028000000     2.837000000    -4.029000000
H    -0.307000000     3.862000000    -3.797000000
C     1.304000000     2.457000000    -3.992000000
C     2.392000000     3.479000000    -3.587000000
H     2.145000000     4.498000000    -3.893000000
H     3.328000000     3.393000000    -4.143000000
C     2.692000000     3.451000000    -2.114000000
C     1.895000000     4.263000000    -1.290000000
H     1.259000000     4.943000000    -1.851000000
C     3.571000000     2.539000000    -1.530000000
C     3.827000000     2.661000000    -0.133000000
H     4.577000000     1.994000000     0.281000000
C     2.968000000     3.445000000     0.632000000
O     2.968000000     3.317000000     1.999000000
C     1.907000000     2.603000000     2.642000000
C     2.530000000     1.709000000     3.638000000
C     1.745000000     1.175000000     4.643000000
H     0.711000000     1.495000000     4.748000000
C     3.899000000     1.248000000     3.589000000
H     4.567000000     1.610000000     2.811000000
O     0.998000000     3.488000000     3.339000000
H     1.360000000     2.073000000     1.849000000
C     1.967000000     4.234000000     0.056000000
C     1.253000000     5.267000000     0.914000000
H     1.059000000     6.200000000     0.380000000
H     1.880000000     5.488000000     1.780000000
C    -0.017000000     4.687000000     1.440000000
C    -1.135000000     4.962000000     0.694000000
H    -1.099000000     5.481000000    -0.260000000
C    -0.121000000     3.844000000     2.536000000
C    -1.345000000     3.381000000     2.951000000
H    -1.441000000     2.814000000     3.873000000
C    -2.469000000     3.608000000     2.185000000
O    -3.600000000     3.012000000     2.582000000
C    -3.864000000     1.732000000     1.831000000
C    -4.221000000     0.536000000     2.751000000
C    -3.697000000     0.476000000     4.055000000
H    -3.244000000     1.396000000     4.414000000
C    -4.881000000    -0.631000000     2.261000000
H    -5.226000000    -0.634000000     1.230000000
O    -4.821000000     1.923000000     0.839000000
H    -2.993000000     1.467000000     1.213000000
C    -2.376000000     4.375000000     1.021000000
C    -3.612000000     4.457000000     0.060000000
H    -3.678000000     5.374000000    -0.528000000
H    -4.533000000     4.417000000     0.647000000
C    -3.687000000     3.241000000    -0.889000000
C    -4.305000000     2.047000000    -0.484000000
C    -4.239000000     0.890000000    -1.269000000
H    -4.543000000    -0.094000000    -0.922000000
C    -3.688000000     0.939000000    -2.564000000
O    -3.610000000    -0.268000000    -3.282000000
C    -2.358000000    -0.897000000    -3.393000000
H    -1.782000000    -0.545000000    -2.525000000
C    -2.387000000    -2.399000000    -3.290000000
C    -1.404000000    -3.199000000    -3.989000000
H    -0.666000000    -2.706000000    -4.615000000
C    -3.327000000    -3.019000000    -2.496000000
H    -4.096000000    -2.435000000    -1.997000000
C    -3.187000000    -4.359000000    -2.254000000
O    -4.091000000    -4.930000000    -1.402000000
C    -2.175000000    -5.134000000    -2.887000000
H    -2.139000000    -6.201000000    -2.682000000
C    -1.310000000    -4.623000000    -3.809000000
O    -0.477000000    -5.467000000    -4.483000000
C     0.735000000    -5.155000000    -5.091000000
C     1.822000000    -4.807000000    -4.296000000
H     1.753000000    -4.807000000    -3.211000000
C     0.874000000    -5.143000000    -6.488000000
H     0.010000000    -5.444000000    -7.074000000
C     2.108000000    -4.789000000    -7.032000000
H     2.192000000    -4.710000000    -8.113000000
C     3.127000000    -4.346000000    -6.272000000
H     3.945000000    -3.823000000    -6.762000000
C     3.088000000    -4.522000000    -4.870000000
O     4.246000000    -4.116000000    -4.167000000
C     4.314000000    -3.208000000    -3.200000000
C     4.833000000    -3.480000000    -1.900000000
H     5.079000000    -4.529000000    -1.755000000
C     4.992000000    -2.483000000    -0.908000000
O     5.285000000    -2.876000000     0.323000000
C     6.067000000    -2.059000000     1.112000000
C     5.445000000    -1.458000000     2.159000000
H     4.370000000    -1.565000000     2.275000000
C     7.429000000    -1.938000000     0.968000000
H     7.927000000    -2.488000000     0.172000000
C     8.194000000    -1.199000000     1.882000000
H     9.261000000    -1.102000000     1.699000000
C     7.594000000    -0.574000000     2.938000000
H     8.085000000    -0.161000000     3.816000000
C     6.235000000    -0.762000000     3.152000000
O     5.642000000    -0.223000000     4.288000000
C     4.360000000     0.288000000     4.475000000
C     3.558000000    -0.109000000     5.578000000
H     3.921000000    -0.882000000     6.251000000
C     2.266000000     0.308000000     5.634000000
O     1.385000000    -0.285000000     6.636000000
C     0.162000000     0.160000000     6.931000000
C    -0.997000000    -0.380000000     6.332000000
H    -0.855000000    -1.242000000     5.686000000
C    -0.053000000     1.191000000     7.866000000
H     0.846000000     1.634000000     8.288000000
C    -1.284000000     1.763000000     8.174000000
H    -1.351000000     2.724000000     8.678000000
C    -2.375000000     1.255000000     7.499000000
H    -3.327000000     1.777000000     7.433000000
C    -2.286000000     0.091000000     6.708000000
O    -3.495000000    -0.483000000     6.282000000
C    -3.846000000    -0.557000000     4.925000000
C    -4.433000000    -1.744000000     4.465000000
H    -4.551000000    -2.598000000     5.127000000
C    -4.917000000    -1.749000000     3.145000000
O    -5.557000000    -2.912000000     2.748000000
C    -5.775000000    -3.202000000     1.445000000
C    -6.910000000    -2.747000000     0.838000000
H    -7.699000000    -2.178000000     1.325000000
C    -7.166000000    -3.099000000    -0.464000000
H    -8.123000000    -2.798000000    -0.883000000
C    -6.284000000    -3.810000000    -1.246000000
H    -6.583000000    -4.188000000    -2.221000000
C    -5.043000000    -4.201000000    -0.685000000
C    -4.842000000    -3.866000000     0.647000000
H    -3.968000000    -4.240000000     1.174000000
C     0.005000000    -2.659000000    -0.443000000
H     0.505000000    -3.434000000    -1.017000000
C     0.091000000    -1.312000000    -0.752000000
H     0.567000000    -0.958000000    -1.663000000
C    -0.434000000    -0.382000000     0.056000000
H    -0.299000000     0.674000000    -0.321000000
C    -0.974000000    -0.728000000     1.286000000
H    -1.360000000     0.020000000     1.974000000
C    -1.051000000    -2.105000000     1.630000000
H    -1.336000000    -2.346000000     2.651000000
C    -0.547000000    -3.101000000     0.771000000
C    -0.572000000    -4.592000000     0.998000000
O    -1.144000000    -5.055000000     1.992000000
O    -0.107000000    -5.366000000     0.184000000
O     0.349000000   -10.608000000     0.202000000
H     1.098000000   -10.027000000     0.333000000
H    -0.026000000   -10.331000000    -0.634000000
O    -3.784000000    -9.917000000    -1.734000000
H    -3.405000000   -10.686000000    -1.309000000
H    -3.828000000    -9.258000000    -1.041000000
O    -3.638000000    -5.824000000     3.113000000
H    -2.799000000    -5.669000000     2.680000000
H    -3.402000000    -6.128000000     3.990000000
O     2.369000000    -5.570000000    -0.823000000
H     2.979000000    -5.633000000    -0.088000000
H     1.508000000    -5.719000000    -0.432000000
O    -0.387000000    -9.982000000     2.796000000
H    -0.803000000    -9.162000000     2.531000000
H    -0.227000000   -10.446000000     1.974000000
O    -1.656000000    -7.801000000     1.387000000
H    -1.339000000    -8.190000000     0.571000000
H    -1.311000000    -6.908000000     1.376000000
O    -0.612000000    -7.607000000    -1.315000000
H     0.158000000    -7.774000000    -1.859000000
H    -0.455000000    -6.742000000    -0.936000000
O     0.684000000    -7.340000000     3.155000000
H     1.232000000    -7.901000000     2.607000000
H     0.547000000    -6.552000000     2.628000000
O     2.693000000    -9.183000000     0.627000000
H     3.051000000    -8.690000000     1.366000000
H     3.360000000    -9.109000000    -0.056000000
O    -1.755000000    -3.612000000     6.501000000
H    -1.447000000    -4.121000000     5.751000000
H    -1.000000000    -3.085000000     6.760000000
O     1.697000000    -7.787000000    -2.805000000
H     2.364000000    -8.429000000    -2.561000000
H     2.132000000    -6.940000000    -2.708000000
O     3.821000000    -4.279000000     5.305000000
H     3.109000000    -3.986000000     4.737000000
H     4.403000000    -4.771000000     4.725000000
O    -2.093000000    -7.605000000     4.424000000
H    -2.063000000    -7.530000000     3.470000000
H    -1.186000000    -7.775000000     4.679000000
O    -0.296000000    -4.889000000     4.484000000
H     0.416000000    -4.274000000     4.307000000
H    -0.788000000    -4.928000000     3.664000000
O     4.435000000    -6.344000000     1.203000000
H     4.208000000    -7.218000000     1.522000000
H     5.209000000    -6.483000000     0.657000000
O     1.096000000    -6.646000000     6.034000000
H     1.619000000    -7.206000000     5.460000000
H     0.612000000    -6.076000000     5.435000000
O    -4.312000000    -8.388000000     0.471000000
H    -3.643000000    -7.972000000     1.016000000
H    -4.833000000    -7.659000000     0.133000000
O     2.686000000    -4.100000000     2.253000000
H     2.604000000    -3.667000000     1.403000000
H     3.260000000    -4.847000000     2.086000000
O    -1.605000000    -8.671000000    -3.520000000
H    -2.502000000    -8.754000000    -3.197000000
H    -1.158000000    -8.147000000    -2.855000000
