215
-1450.26193
C    -4.572000000    -1.617000000    -2.222000000
H    -4.709000000    -0.653000000    -2.706000000
C    -4.277000000    -1.634000000    -0.821000000
C    -4.135000000    -2.848000000    -0.172000000
H    -3.648000000    -2.878000000     0.800000000
C    -4.090000000    -0.349000000    -0.020000000
O    -4.665000000     0.769000000    -0.719000000
H    -3.002000000    -0.219000000     0.078000000
O    -4.646000000    -0.440000000     1.344000000
C    -3.923000000     0.201000000     2.340000000
C    -3.210000000    -0.682000000     3.186000000
H    -3.210000000    -1.765000000     3.092000000
C    -2.384000000    -0.172000000     4.138000000
O    -1.494000000    -1.081000000     4.686000000
C    -2.157000000     1.179000000     4.203000000
C    -1.071000000     1.751000000     5.184000000
H    -1.389000000     2.740000000     5.519000000
C     0.267000000     1.952000000     4.429000000
C     0.592000000     3.119000000     3.772000000
H    -0.126000000     3.935000000     3.815000000
H    -1.053000000     1.096000000     6.058000000
C    -2.961000000     2.062000000     3.509000000
H    -2.801000000     3.132000000     3.612000000
C    -3.836000000     1.586000000     2.480000000
C    -4.527000000     2.564000000     1.568000000
H    -4.615000000     3.546000000     2.039000000
H    -5.569000000     2.282000000     1.403000000
C    -3.740000000     2.782000000     0.271000000
C    -2.782000000     3.818000000     0.231000000
H    -2.618000000     4.435000000     1.111000000
C    -3.847000000     1.886000000    -0.832000000
C    -3.243000000     2.162000000    -2.006000000
H    -3.334000000     1.539000000    -2.893000000
C    -2.449000000     3.279000000    -2.104000000
O    -1.618000000     3.250000000    -3.164000000
C    -0.299000000     2.813000000    -3.016000000
C    -0.002000000     1.903000000    -4.216000000
C     1.297000000     1.888000000    -4.677000000
H     2.073000000     2.505000000    -4.232000000
C    -1.023000000     1.136000000    -4.912000000
H    -2.025000000     1.149000000    -4.490000000
O     0.573000000     3.905000000    -2.787000000
H    -0.210000000     2.171000000    -2.127000000
C    -2.167000000     4.038000000    -0.972000000
C    -1.220000000     5.258000000    -1.009000000
H    -1.564000000     6.050000000    -0.340000000
H    -1.228000000     5.739000000    -1.989000000
C     0.147000000     4.800000000    -0.593000000
C     0.651000000     5.025000000     0.715000000
H     0.026000000     5.487000000     1.475000000
C     1.001000000     4.202000000    -1.542000000
C     2.272000000     3.748000000    -1.191000000
H     2.908000000     3.310000000    -1.956000000
C     2.686000000     3.807000000     0.142000000
O     3.884000000     3.244000000     0.534000000
C     3.809000000     1.907000000     1.135000000
C     4.792000000     0.972000000     0.463000000
C     5.109000000     1.138000000    -0.865000000
H     4.717000000     1.963000000    -1.453000000
C     5.206000000    -0.143000000     1.164000000
H     4.977000000    -0.162000000     2.226000000
O     3.913000000     2.100000000     2.554000000
H     2.846000000     1.578000000     0.716000000
C     1.829000000     4.437000000     1.057000000
C     2.231000000     4.541000000     2.513000000
H     1.750000000     5.362000000     3.047000000
H     3.285000000     4.802000000     2.630000000
C     1.896000000     3.257000000     3.210000000
C     2.758000000     2.114000000     3.211000000
C     2.356000000     0.961000000     3.823000000
H     3.011000000     0.095000000     3.770000000
C     1.117000000     0.870000000     4.299000000
O     0.722000000    -0.405000000     4.747000000
C    -0.218000000    -1.214000000     4.091000000
H    -0.256000000    -0.856000000     3.052000000
C     0.217000000    -2.720000000     4.025000000
C    -0.796000000    -3.742000000     4.058000000
H    -1.834000000    -3.535000000     4.304000000
C     1.558000000    -3.084000000     3.819000000
H     2.346000000    -2.336000000     3.822000000
C     1.891000000    -4.436000000     3.720000000
O     3.183000000    -4.836000000     3.635000000
C     0.920000000    -5.459000000     3.708000000
H     1.245000000    -6.496000000     3.706000000
C    -0.462000000    -5.074000000     3.833000000
O    -1.502000000    -5.992000000     3.782000000
C    -2.668000000    -5.817000000     2.953000000
C    -2.702000000    -5.711000000     1.566000000
H    -1.763000000    -5.727000000     1.019000000
C    -3.884000000    -5.729000000     3.671000000
H    -3.779000000    -5.857000000     4.746000000
C    -5.126000000    -5.477000000     3.051000000
H    -6.015000000    -5.538000000     3.673000000
C    -5.098000000    -5.396000000     1.666000000
H    -6.035000000    -5.282000000     1.128000000
C    -3.905000000    -5.473000000     0.929000000
O    -3.923000000    -5.228000000    -0.413000000
C    -4.269000000    -4.015000000    -0.975000000
C    -4.621000000    -3.998000000    -2.319000000
H    -4.786000000    -4.926000000    -2.860000000
C    -4.815000000    -2.732000000    -2.938000000
O    -5.008000000    -2.751000000    -4.333000000
C    -4.702000000    -1.741000000    -5.145000000
C    -3.375000000    -1.591000000    -5.463000000
H    -2.650000000    -2.303000000    -5.078000000
C    -5.696000000    -0.829000000    -5.533000000
H    -6.730000000    -0.880000000    -5.200000000
C    -5.268000000     0.115000000    -6.444000000
H    -5.958000000     0.885000000    -6.779000000
C    -3.963000000     0.334000000    -6.745000000
H    -3.573000000     1.102000000    -7.408000000
C    -3.019000000    -0.562000000    -6.282000000
O    -1.667000000    -0.333000000    -6.665000000
C    -0.710000000     0.393000000    -5.965000000
C     0.617000000     0.208000000    -6.286000000
H     0.770000000    -0.515000000    -7.083000000
C     1.627000000     0.980000000    -5.692000000
O     2.901000000     0.851000000    -6.223000000
C     4.003000000     1.353000000    -5.507000000
C     4.644000000     0.598000000    -4.522000000
H     4.313000000    -0.435000000    -4.449000000
C     4.407000000     2.668000000    -5.702000000
H     3.883000000     3.253000000    -6.454000000
C     5.518000000     3.074000000    -5.005000000
H     5.745000000     4.118000000    -5.204000000
C     6.272000000     2.329000000    -4.112000000
H     7.038000000     2.890000000    -3.582000000
C     5.714000000     1.059000000    -3.815000000
O     6.295000000     0.207000000    -2.835000000
C     5.920000000     0.149000000    -1.553000000
C     6.359000000    -0.929000000    -0.780000000
H     6.875000000    -1.668000000    -1.387000000
C     6.004000000    -1.079000000     0.593000000
O     6.451000000    -2.196000000     1.210000000
C     5.988000000    -2.656000000     2.446000000
C     6.578000000    -2.281000000     3.675000000
H     7.343000000    -1.514000000     3.777000000
C     5.864000000    -2.614000000     4.860000000
H     6.188000000    -2.307000000     5.852000000
C     4.827000000    -3.607000000     4.806000000
H     4.401000000    -4.015000000     5.719000000
C     4.333000000    -4.066000000     3.609000000
C     4.929000000    -3.561000000     2.435000000
H     4.341000000    -3.732000000     1.536000000
C     0.056000000    -2.794000000     0.316000000
H    -0.423000000    -3.667000000     0.751000000
C    -0.488000000    -1.530000000     0.545000000
H    -1.440000000    -1.405000000     1.055000000
C     0.224000000    -0.409000000     0.167000000
H    -0.004000000     0.605000000     0.429000000
C     1.457000000    -0.498000000    -0.465000000
H     1.992000000     0.383000000    -0.811000000
C     1.994000000    -1.769000000    -0.766000000
H     2.979000000    -1.903000000    -1.205000000
C     1.337000000    -2.928000000    -0.292000000
C     1.988000000    -4.313000000    -0.143000000
O     3.188000000    -4.453000000    -0.273000000
O     1.183000000    -5.278000000    -0.114000000
O    -1.044000000    -5.830000000    -1.765000000
H    -0.321000000    -5.676000000    -1.157000000
H    -1.832000000    -5.677000000    -1.244000000
O     0.727000000    -8.215000000    -4.983000000
H     0.348000000    -8.500000000    -4.151000000
H     0.519000000    -8.920000000    -5.595000000
O     3.073000000    -6.220000000    -2.104000000
H     2.339000000    -6.725000000    -1.753000000
H     3.206000000    -5.517000000    -1.469000000
O    -2.822000000    -5.638000000    -4.170000000
H    -2.980000000    -6.424000000    -3.648000000
H    -1.970000000    -5.320000000    -3.872000000
O     2.659000000    -2.359000000    -6.081000000
H     2.596000000    -1.415000000    -6.227000000
H     2.048000000    -2.532000000    -5.366000000
O     5.474000000    -2.910000000    -5.155000000
H     4.619000000    -2.522000000    -5.341000000
H     5.287000000    -3.835000000    -4.994000000
O     1.101000000    -7.787000000    -0.674000000
H     0.893000000    -6.867000000    -0.506000000
H     1.577000000    -8.071000000     0.106000000
O     4.576000000    -6.754000000     0.679000000
H     4.764000000    -6.035000000     0.076000000
H     3.635000000    -6.694000000     0.839000000
O     5.892000000    -4.995000000    -1.337000000
H     5.376000000    -4.477000000    -0.720000000
H     5.553000000    -4.749000000    -2.198000000
O    -1.378000000    -2.154000000    -2.779000000
H    -0.973000000    -2.410000000    -1.950000000
H    -1.706000000    -1.268000000    -2.621000000
O    -0.589000000    -8.933000000    -2.578000000
H    -0.019000000    -8.512000000    -1.934000000
H    -1.411000000    -8.445000000    -2.524000000
O     0.824000000    -2.864000000    -4.128000000
H     0.085000000    -2.493000000    -3.645000000
H     0.729000000    -3.811000000    -4.021000000
O     4.528000000    -5.414000000    -4.567000000
H     3.942000000    -5.550000000    -3.823000000
H     4.232000000    -6.046000000    -5.223000000
O     2.172000000    -8.447000000     1.892000000
H     1.231000000    -8.580000000     2.007000000
H     2.558000000    -9.308000000     2.056000000
O     5.769000000    -8.550000000     2.304000000
H     5.588000000    -9.345000000     1.803000000
H     5.455000000    -7.838000000     1.747000000
O     5.209000000    -9.164000000    -2.589000000
H     4.964000000    -8.324000000    -2.977000000
H     4.375000000    -9.572000000    -2.355000000
O     7.992000000    -4.198000000    -2.885000000
H     8.315000000    -3.362000000    -2.549000000
H     7.520000000    -4.587000000    -2.149000000
O     3.512000000    -7.328000000     4.543000000
H     3.675000000    -7.866000000     3.768000000
H     3.369000000    -6.447000000     4.196000000
O     0.334000000    -5.484000000    -4.182000000
H     0.284000000    -6.360000000    -4.563000000
H    -0.135000000    -5.557000000    -3.351000000
