215
-1453.42027
C    -4.548000000    -1.222000000    -2.241000000
H    -4.703000000    -0.249000000    -2.701000000
C    -4.212000000    -1.245000000    -0.858000000
C    -3.939000000    -2.495000000    -0.223000000
H    -3.685000000    -2.489000000     0.834000000
C    -4.016000000     0.001000000    -0.039000000
O    -4.594000000     1.209000000    -0.622000000
H    -2.944000000     0.236000000     0.039000000
O    -4.542000000    -0.166000000     1.225000000
C    -3.724000000     0.112000000     2.241000000
C    -3.011000000    -0.876000000     2.904000000
H    -3.091000000    -1.916000000     2.599000000
C    -2.163000000    -0.504000000     3.992000000
O    -1.538000000    -1.502000000     4.550000000
C    -2.013000000     0.820000000     4.350000000
C    -1.060000000     1.260000000     5.419000000
H    -1.420000000     2.199000000     5.843000000
C     0.328000000     1.310000000     4.791000000
C     0.701000000     2.545000000     4.282000000
H     0.021000000     3.391000000     4.339000000
H    -1.136000000     0.405000000     6.094000000
C    -2.764000000     1.786000000     3.669000000
H    -2.692000000     2.844000000     3.904000000
C    -3.602000000     1.429000000     2.622000000
C    -4.383000000     2.545000000     1.892000000
H    -4.416000000     3.399000000     2.572000000
H    -5.447000000     2.313000000     1.812000000
C    -3.677000000     3.020000000     0.623000000
C    -2.800000000     4.140000000     0.601000000
H    -2.655000000     4.716000000     1.511000000
C    -3.933000000     2.387000000    -0.562000000
C    -3.351000000     2.779000000    -1.737000000
H    -3.649000000     2.225000000    -2.623000000
C    -2.392000000     3.801000000    -1.799000000
O    -1.630000000     3.909000000    -3.001000000
C    -0.348000000     3.347000000    -2.905000000
C    -0.011000000     2.636000000    -4.205000000
C     1.302000000     2.606000000    -4.609000000
H     2.098000000     3.251000000    -4.246000000
C    -1.001000000     1.866000000    -4.886000000
H    -1.997000000     1.814000000    -4.456000000
O     0.495000000     4.427000000    -2.495000000
H    -0.356000000     2.602000000    -2.096000000
C    -2.165000000     4.572000000    -0.620000000
C    -1.067000000     5.585000000    -0.566000000
H    -1.269000000     6.345000000     0.192000000
H    -0.934000000     6.118000000    -1.510000000
C     0.180000000     4.946000000    -0.135000000
C     0.586000000     4.820000000     1.232000000
H    -0.092000000     5.104000000     2.033000000
C     1.013000000     4.446000000    -1.151000000
C     2.233000000     3.948000000    -0.881000000
H     2.877000000     3.656000000    -1.707000000
C     2.659000000     3.794000000     0.465000000
O     3.855000000     3.141000000     0.818000000
C     3.720000000     1.712000000     1.163000000
C     4.746000000     0.789000000     0.404000000
C     5.184000000     1.109000000    -0.862000000
H     4.839000000     1.987000000    -1.403000000
C     5.125000000    -0.401000000     1.032000000
H     4.725000000    -0.715000000     1.992000000
O     3.815000000     1.535000000     2.565000000
H     2.694000000     1.367000000     0.966000000
C     1.837000000     4.255000000     1.514000000
C     2.268000000     4.079000000     2.957000000
H     1.944000000     4.877000000     3.629000000
H     3.352000000     4.197000000     2.916000000
C     1.922000000     2.671000000     3.575000000
C     2.734000000     1.548000000     3.393000000
C     2.329000000     0.336000000     3.966000000
H     2.866000000    -0.559000000     3.663000000
C     1.184000000     0.222000000     4.672000000
O     0.800000000    -1.067000000     5.067000000
C    -0.154000000    -1.738000000     4.190000000
H     0.017000000    -1.323000000     3.186000000
C     0.107000000    -3.235000000     4.038000000
C    -0.940000000    -4.153000000     4.107000000
H    -1.900000000    -3.867000000     4.529000000
C     1.345000000    -3.687000000     3.587000000
H     2.187000000    -3.009000000     3.705000000
C     1.513000000    -4.946000000     3.099000000
O     2.700000000    -5.275000000     2.424000000
C     0.500000000    -5.831000000     3.148000000
H     0.655000000    -6.888000000     2.948000000
C    -0.769000000    -5.506000000     3.685000000
O    -1.784000000    -6.410000000     3.710000000
C    -2.972000000    -6.071000000     2.993000000
C    -2.840000000    -5.626000000     1.681000000
H    -1.864000000    -5.682000000     1.206000000
C    -4.204000000    -6.081000000     3.574000000
H    -4.270000000    -6.413000000     4.607000000
C    -5.379000000    -5.793000000     2.769000000
H    -6.357000000    -5.875000000     3.236000000
C    -5.232000000    -5.348000000     1.457000000
H    -6.058000000    -5.135000000     0.783000000
C    -3.918000000    -5.253000000     0.929000000
O    -3.655000000    -4.904000000    -0.417000000
C    -3.897000000    -3.694000000    -0.995000000
C    -4.286000000    -3.637000000    -2.298000000
H    -4.372000000    -4.529000000    -2.914000000
C    -4.611000000    -2.451000000    -2.934000000
O    -4.826000000    -2.512000000    -4.309000000
C    -4.540000000    -1.504000000    -5.273000000
C    -3.244000000    -1.065000000    -5.386000000
H    -2.462000000    -1.621000000    -4.876000000
C    -5.483000000    -0.781000000    -6.025000000
H    -6.508000000    -1.140000000    -5.991000000
C    -5.130000000     0.243000000    -6.933000000
H    -5.904000000     0.639000000    -7.584000000
C    -3.733000000     0.582000000    -7.073000000
H    -3.423000000     1.359000000    -7.767000000
C    -2.825000000    -0.106000000    -6.305000000
O    -1.468000000     0.084000000    -6.543000000
C    -0.613000000     1.064000000    -6.011000000
C     0.761000000     0.940000000    -6.284000000
H     1.049000000     0.272000000    -7.092000000
C     1.718000000     1.647000000    -5.576000000
O     3.043000000     1.608000000    -6.015000000
C     4.120000000     1.993000000    -5.258000000
C     4.699000000     1.083000000    -4.432000000
H     4.339000000     0.058000000    -4.378000000
C     4.664000000     3.299000000    -5.338000000
H     4.199000000     4.020000000    -6.005000000
C     5.732000000     3.688000000    -4.527000000
H     6.135000000     4.697000000    -4.540000000
C     6.302000000     2.726000000    -3.729000000
H     7.240000000     2.914000000    -3.213000000
C     5.810000000     1.432000000    -3.734000000
O     6.330000000     0.409000000    -2.927000000
C     5.959000000     0.176000000    -1.578000000
C     6.375000000    -0.959000000    -0.965000000
H     6.966000000    -1.680000000    -1.524000000
C     6.021000000    -1.210000000     0.315000000
O     6.368000000    -2.481000000     0.804000000
C     5.625000000    -3.086000000     1.734000000
C     6.139000000    -2.918000000     3.008000000
H     6.980000000    -2.256000000     3.195000000
C     5.507000000    -3.507000000     4.086000000
H     5.882000000    -3.287000000     5.082000000
C     4.421000000    -4.297000000     3.845000000
H     3.985000000    -4.753000000     4.730000000
C     3.931000000    -4.540000000     2.586000000
C     4.581000000    -3.905000000     1.514000000
H     4.272000000    -4.015000000     0.477000000
C    -0.159000000    -2.875000000     0.019000000
H    -0.626000000    -3.752000000     0.459000000
C    -0.614000000    -1.590000000     0.208000000
H    -1.491000000    -1.470000000     0.839000000
C     0.168000000    -0.489000000    -0.177000000
H    -0.273000000     0.529000000    -0.043000000
C     1.319000000    -0.726000000    -0.846000000
H     1.900000000     0.103000000    -1.242000000
C     1.763000000    -2.013000000    -1.119000000
H     2.747000000    -2.182000000    -1.549000000
C     0.998000000    -3.117000000    -0.661000000
C     1.507000000    -4.536000000    -0.814000000
O     2.643000000    -4.681000000    -1.225000000
O     0.740000000    -5.476000000    -0.716000000
O    -1.403000000    -5.750000000    -2.407000000
H    -0.642000000    -5.726000000    -1.827000000
H    -2.153000000    -5.806000000    -1.815000000
O     0.934000000    -7.952000000    -5.447000000
H     1.776000000    -7.945000000    -4.991000000
H     0.598000000    -8.839000000    -5.316000000
O     1.776000000    -6.792000000    -3.016000000
H     1.330000000    -7.389000000    -2.415000000
H     1.779000000    -5.951000000    -2.560000000
O    -1.568000000    -6.248000000    -4.943000000
H    -1.131000000    -7.092000000    -4.834000000
H    -1.457000000    -5.810000000    -4.098000000
O     5.190000000    -2.066000000    -5.227000000
H     4.577000000    -2.118000000    -5.960000000
H     4.820000000    -2.648000000    -4.563000000
O     0.924000000    -8.028000000    -0.378000000
H     0.896000000    -7.071000000    -0.376000000
H     0.070000000    -8.293000000    -0.037000000
O    -1.300000000    -8.748000000    -3.229000000
H    -1.541000000    -8.140000000    -2.531000000
H    -2.025000000    -9.371000000    -3.265000000
O     3.866000000    -6.957000000    -0.426000000
H     3.376000000    -6.267000000    -0.872000000
H     3.227000000    -7.365000000     0.158000000
O     3.775000000    -3.594000000    -3.532000000
H     3.498000000    -3.699000000    -2.622000000
H     3.878000000    -4.489000000    -3.856000000
O    -0.164000000    -2.232000000    -4.492000000
H    -0.338000000    -2.654000000    -3.651000000
H    -0.062000000    -2.958000000    -5.108000000
O     1.021000000   -10.283000000    -3.198000000
H     0.771000000   -11.192000000    -3.028000000
H     0.203000000    -9.852000000    -3.446000000
O     2.326000000    -2.673000000    -6.512000000
H     2.166000000    -2.063000000    -5.792000000
H     2.190000000    -3.539000000    -6.126000000
O     4.029000000    -6.297000000    -4.567000000
H     3.600000000    -6.896000000    -3.956000000
H     4.310000000    -6.854000000    -5.293000000
O    -3.223000000    -8.178000000    -1.027000000
H    -3.958000000    -8.777000000    -0.901000000
H    -2.665000000    -8.320000000    -0.262000000
O     2.881000000    -9.882000000    -0.888000000
H     3.205000000    -9.549000000    -1.725000000
H     2.176000000    -9.281000000    -0.648000000
O     5.683000000    -6.966000000     2.286000000
H     5.646000000    -7.922000000     2.256000000
H     4.856000000    -6.682000000     1.898000000
O    -1.573000000    -8.871000000     1.488000000
H    -1.445000000    -9.631000000     0.921000000
H    -1.471000000    -9.214000000     2.376000000
O     6.520000000    -7.070000000    -1.288000000
H     5.628000000    -7.203000000    -0.968000000
H     6.463000000    -6.287000000    -1.836000000
O     1.552000000    -5.159000000    -5.372000000
H     0.880000000    -5.835000000    -5.284000000
H     2.343000000    -5.558000000    -5.008000000
