215
-1462.14691
C     5.149000000    -1.719000000    -0.631000000
H     5.042000000    -1.141000000     0.283000000
C     4.674000000    -1.213000000    -1.856000000
C     4.697000000    -2.070000000    -2.966000000
H     4.325000000    -1.829000000    -3.958000000
C     4.060000000     0.174000000    -1.995000000
O     4.771000000     1.229000000    -1.308000000
H     3.088000000     0.055000000    -1.494000000
O     3.739000000     0.535000000    -3.374000000
C     2.495000000     1.060000000    -3.726000000
C     1.605000000     0.171000000    -4.218000000
H     1.994000000    -0.836000000    -4.346000000
C     0.330000000     0.681000000    -4.510000000
O    -0.626000000    -0.219000000    -4.921000000
C     0.030000000     2.060000000    -4.439000000
C    -1.303000000     2.564000000    -4.739000000
H    -1.170000000     3.567000000    -5.149000000
C    -2.279000000     2.532000000    -3.487000000
C    -2.458000000     3.641000000    -2.664000000
H    -1.871000000     4.540000000    -2.833000000
H    -1.751000000     1.942000000    -5.516000000
C     1.036000000     2.981000000    -3.996000000
H     0.835000000     4.039000000    -3.843000000
C     2.269000000     2.434000000    -3.628000000
C     3.356000000     3.300000000    -2.996000000
H     3.249000000     4.316000000    -3.380000000
H     4.266000000     2.868000000    -3.417000000
C     3.315000000     3.202000000    -1.530000000
C     2.579000000     4.205000000    -0.945000000
H     2.086000000     4.981000000    -1.525000000
C     3.996000000     2.224000000    -0.726000000
C     3.956000000     2.303000000     0.659000000
H     4.500000000     1.586000000     1.268000000
C     3.130000000     3.194000000     1.230000000
O     2.937000000     3.062000000     2.603000000
C     1.552000000     2.605000000     3.028000000
C     1.607000000     1.409000000     3.986000000
C     0.797000000     1.315000000     5.152000000
H    -0.056000000     1.964000000     5.328000000
C     2.361000000     0.296000000     3.616000000
H     2.942000000     0.357000000     2.699000000
O     0.707000000     3.672000000     3.532000000
H     1.047000000     2.349000000     2.085000000
C     2.409000000     4.162000000     0.451000000
C     1.533000000     5.212000000     1.172000000
H     1.566000000     6.118000000     0.563000000
H     2.027000000     5.452000000     2.116000000
C     0.159000000     4.791000000     1.457000000
C    -0.818000000     5.061000000     0.509000000
H    -0.419000000     5.593000000    -0.351000000
C    -0.183000000     4.088000000     2.639000000
C    -1.512000000     3.684000000     2.811000000
H    -1.663000000     3.126000000     3.731000000
C    -2.452000000     3.778000000     1.808000000
O    -3.643000000     3.130000000     1.956000000
C    -3.734000000     1.929000000     1.274000000
C    -4.462000000     0.918000000     2.153000000
C    -4.344000000     0.948000000     3.533000000
H    -3.952000000     1.838000000     4.019000000
C    -4.858000000    -0.299000000     1.540000000
H    -4.816000000    -0.419000000     0.461000000
O    -4.452000000     2.193000000     0.049000000
H    -2.760000000     1.517000000     0.969000000
C    -2.096000000     4.536000000     0.615000000
C    -3.183000000     4.679000000    -0.468000000
H    -3.054000000     5.651000000    -0.950000000
H    -4.155000000     4.702000000     0.029000000
C    -3.172000000     3.509000000    -1.457000000
C    -3.716000000     2.324000000    -1.094000000
C    -3.560000000     1.191000000    -1.890000000
H    -4.071000000     0.304000000    -1.524000000
C    -2.792000000     1.288000000    -3.049000000
O    -2.777000000     0.069000000    -3.712000000
C    -1.551000000    -0.711000000    -3.844000000
H    -0.973000000    -0.468000000    -2.940000000
C    -1.784000000    -2.226000000    -3.759000000
C    -0.726000000    -3.157000000    -4.065000000
H     0.215000000    -2.757000000    -4.432000000
C    -2.886000000    -2.748000000    -3.049000000
H    -3.668000000    -2.053000000    -2.752000000
C    -2.977000000    -4.092000000    -2.651000000
O    -4.094000000    -4.541000000    -1.974000000
C    -1.992000000    -5.007000000    -3.038000000
H    -2.037000000    -5.986000000    -2.569000000
C    -0.811000000    -4.533000000    -3.726000000
O     0.229000000    -5.482000000    -3.904000000
C     1.423000000    -5.167000000    -4.561000000
C     2.601000000    -4.787000000    -3.819000000
H     2.651000000    -4.579000000    -2.753000000
C     1.425000000    -5.233000000    -5.930000000
H     0.619000000    -5.599000000    -6.561000000
C     2.583000000    -5.084000000    -6.635000000
H     2.530000000    -5.128000000    -7.720000000
C     3.758000000    -4.657000000    -5.941000000
H     4.643000000    -4.359000000    -6.497000000
C     3.786000000    -4.544000000    -4.575000000
O     5.032000000    -4.266000000    -3.977000000
C     5.111000000    -3.406000000    -2.845000000
C     5.607000000    -3.938000000    -1.693000000
H     5.877000000    -4.989000000    -1.638000000
C     5.582000000    -3.058000000    -0.582000000
O     5.901000000    -3.649000000     0.634000000
C     5.763000000    -2.952000000     1.822000000
C     4.452000000    -2.796000000     2.317000000
H     3.612000000    -3.398000000     1.980000000
C     6.825000000    -2.226000000     2.369000000
H     7.780000000    -2.290000000     1.852000000
C     6.550000000    -1.343000000     3.403000000
H     7.321000000    -0.715000000     3.841000000
C     5.239000000    -1.277000000     3.885000000
H     5.040000000    -0.742000000     4.810000000
C     4.217000000    -1.972000000     3.315000000
O     2.958000000    -1.992000000     3.923000000
C     2.336000000    -0.887000000     4.356000000
C     1.626000000    -0.988000000     5.550000000
H     1.673000000    -1.933000000     6.086000000
C     0.819000000     0.117000000     5.906000000
O    -0.042000000    -0.102000000     6.994000000
C    -1.340000000     0.506000000     7.003000000
C    -2.352000000     0.004000000     6.159000000
H    -2.067000000    -0.675000000     5.360000000
C    -1.572000000     1.546000000     7.937000000
H    -0.790000000     1.828000000     8.637000000
C    -2.851000000     1.999000000     8.143000000
H    -3.164000000     2.689000000     8.923000000
C    -3.885000000     1.464000000     7.342000000
H    -4.912000000     1.813000000     7.402000000
C    -3.643000000     0.583000000     6.298000000
O    -4.694000000     0.063000000     5.621000000
C    -4.800000000    -0.115000000     4.305000000
C    -5.287000000    -1.267000000     3.757000000
H    -5.635000000    -2.093000000     4.373000000
C    -5.340000000    -1.355000000     2.382000000
O    -6.032000000    -2.421000000     1.835000000
C    -6.000000000    -2.676000000     0.466000000
C    -6.951000000    -2.110000000    -0.387000000
H    -7.699000000    -1.438000000     0.024000000
C    -6.967000000    -2.316000000    -1.771000000
H    -7.790000000    -1.930000000    -2.368000000
C    -6.056000000    -3.253000000    -2.292000000
H    -6.013000000    -3.308000000    -3.377000000
C    -5.124000000    -3.749000000    -1.467000000
C    -5.039000000    -3.507000000    -0.067000000
H    -4.246000000    -4.003000000     0.487000000
C     0.166000000    -2.907000000    -0.051000000
H     0.421000000    -3.794000000    -0.627000000
C     0.478000000    -1.636000000    -0.574000000
H     1.017000000    -1.476000000    -1.504000000
C     0.032000000    -0.491000000     0.106000000
H     0.288000000     0.488000000    -0.328000000
C    -0.702000000    -0.582000000     1.287000000
H    -1.146000000     0.297000000     1.747000000
C    -0.898000000    -1.864000000     1.856000000
H    -1.458000000    -1.964000000     2.782000000
C    -0.402000000    -3.058000000     1.202000000
C    -0.675000000    -4.400000000     1.724000000
O    -0.833000000    -4.544000000     2.933000000
O    -0.529000000    -5.346000000     1.002000000
O     0.718000000    -4.726000000     6.971000000
H     0.944000000    -5.588000000     7.321000000
H     0.507000000    -4.202000000     7.744000000
O    -3.154000000    -4.388000000     7.037000000
H    -2.726000000    -5.233000000     6.902000000
H    -2.803000000    -3.828000000     6.345000000
O    -2.268000000    -7.641000000     0.913000000
H    -1.807000000    -8.348000000     1.364000000
H    -1.661000000    -6.901000000     0.942000000
O     2.243000000    -9.035000000     0.836000000
H     2.123000000    -8.268000000     1.396000000
H     1.600000000    -8.924000000     0.136000000
O    -1.370000000    -9.828000000     2.008000000
H    -1.934000000    -9.512000000     2.713000000
H    -0.615000000   -10.209000000     2.456000000
O    -0.695000000    -6.284000000     4.989000000
H    -0.396000000    -5.703000000     4.289000000
H    -0.253000000    -5.960000000     5.774000000
O     2.994000000    -4.860000000     5.352000000
H     2.446000000    -4.249000000     4.858000000
H     2.674000000    -4.795000000     6.252000000
O    -3.476000000    -5.349000000     2.651000000
H    -3.313000000    -6.168000000     3.120000000
H    -2.609000000    -4.956000000     2.547000000
O    -2.337000000    -8.353000000     4.069000000
H    -2.502000000    -8.702000000     4.945000000
H    -1.900000000    -7.516000000     4.223000000
O     2.553000000    -9.317000000     4.246000000
H     2.311000000    -8.538000000     3.745000000
H     3.467000000    -9.477000000     4.013000000
O     4.769000000    -6.307000000     4.116000000
H     4.096000000    -5.787000000     4.556000000
H     5.140000000    -6.853000000     4.809000000
O     1.143000000    -7.122000000     2.437000000
H     0.587000000    -7.033000000     3.211000000
H     0.630000000    -6.734000000     1.728000000
O    -1.740000000    -8.826000000    -1.928000000
H    -2.503000000    -8.324000000    -1.640000000
H    -0.991000000    -8.281000000    -1.689000000
O     0.067000000    -6.750000000    -1.169000000
H     0.996000000    -6.595000000    -1.341000000
H    -0.165000000    -6.100000000    -0.505000000
O     3.369000000    -6.714000000    -0.977000000
H     3.353000000    -7.665000000    -0.868000000
H     3.666000000    -6.381000000    -0.130000000
O    -2.314000000    -3.225000000     4.694000000
H    -1.713000000    -3.703000000     4.123000000
H    -3.181000000    -3.558000000     4.462000000
O    -3.946000000    -7.504000000    -0.976000000
H    -3.402000000    -7.512000000    -0.188000000
H    -4.364000000    -6.643000000    -0.969000000
O     4.668000000    -6.053000000     1.330000000
H     5.175000000    -5.247000000     1.432000000
H     4.400000000    -6.282000000     2.220000000
O    -5.968000000    -6.296000000     1.552000000
H    -5.233000000    -5.967000000     2.071000000
H    -6.744000000    -5.932000000     1.979000000
