215
-1446.66333
C     5.654000000    -1.108000000    -0.392000000
H     5.843000000    -0.146000000     0.076000000
C     4.806000000    -1.238000000    -1.511000000
C     4.534000000    -2.447000000    -2.017000000
H     3.817000000    -2.439000000    -2.834000000
C     4.046000000     0.008000000    -2.019000000
O     4.802000000     1.180000000    -1.733000000
H     3.114000000     0.090000000    -1.441000000
O     3.758000000    -0.030000000    -3.433000000
C     2.569000000     0.451000000    -3.883000000
C     1.581000000    -0.507000000    -4.128000000
H     1.788000000    -1.572000000    -4.059000000
C     0.259000000    -0.072000000    -4.553000000
O    -0.642000000    -1.045000000    -4.518000000
C    -0.056000000     1.272000000    -4.638000000
C    -1.405000000     1.747000000    -5.071000000
H    -1.249000000     2.727000000    -5.527000000
C    -2.413000000     1.950000000    -3.876000000
C    -2.599000000     3.156000000    -3.236000000
H    -2.035000000     3.991000000    -3.644000000
H    -1.788000000     1.183000000    -5.924000000
C     0.988000000     2.201000000    -4.375000000
H     0.879000000     3.278000000    -4.279000000
C     2.271000000     1.769000000    -3.933000000
C     3.331000000     2.806000000    -3.643000000
H     3.124000000     3.726000000    -4.195000000
H     4.314000000     2.506000000    -4.014000000
C     3.361000000     3.107000000    -2.101000000
C     2.517000000     4.064000000    -1.521000000
H     1.832000000     4.599000000    -2.173000000
C     4.106000000     2.307000000    -1.243000000
C     4.066000000     2.398000000     0.119000000
H     4.767000000     1.772000000     0.664000000
C     3.202000000     3.369000000     0.722000000
O     2.911000000     3.344000000     2.064000000
C     1.658000000     2.758000000     2.477000000
C     1.894000000     1.856000000     3.703000000
C     0.915000000     1.592000000     4.630000000
H    -0.055000000     2.026000000     4.401000000
C     3.124000000     1.200000000     3.919000000
H     3.873000000     1.236000000     3.132000000
O     0.669000000     3.806000000     2.800000000
H     1.186000000     2.052000000     1.779000000
C     2.455000000     4.217000000    -0.153000000
C     1.437000000     5.268000000     0.390000000
H     1.384000000     6.131000000    -0.278000000
H     1.842000000     5.537000000     1.368000000
C     0.009000000     4.683000000     0.610000000
C    -0.988000000     4.807000000    -0.372000000
H    -0.736000000     5.218000000    -1.346000000
C    -0.279000000     4.028000000     1.854000000
C    -1.520000000     3.462000000     2.094000000
H    -1.643000000     3.059000000     3.096000000
C    -2.465000000     3.583000000     1.097000000
O    -3.695000000     3.006000000     1.411000000
C    -4.018000000     1.765000000     0.727000000
C    -4.643000000     0.667000000     1.563000000
C    -4.155000000     0.487000000     2.845000000
H    -3.260000000     0.986000000     3.207000000
C    -5.665000000    -0.112000000     1.071000000
H    -6.044000000     0.016000000     0.060000000
O    -4.803000000     2.076000000    -0.477000000
H    -3.039000000     1.398000000     0.387000000
C    -2.260000000     4.292000000    -0.077000000
C    -3.376000000     4.412000000    -1.168000000
H    -3.206000000     5.289000000    -1.796000000
H    -4.302000000     4.560000000    -0.608000000
C    -3.409000000     3.190000000    -2.093000000
C    -4.197000000     2.075000000    -1.745000000
C    -3.953000000     0.882000000    -2.380000000
H    -4.378000000    -0.016000000    -1.939000000
C    -3.113000000     0.783000000    -3.435000000
O    -2.890000000    -0.450000000    -3.909000000
C    -1.671000000    -1.032000000    -3.463000000
H    -1.254000000    -0.414000000    -2.654000000
C    -1.910000000    -2.442000000    -2.982000000
C    -0.784000000    -3.236000000    -2.685000000
H     0.205000000    -2.909000000    -2.998000000
C    -3.204000000    -2.983000000    -2.841000000
H    -4.092000000    -2.529000000    -3.275000000
C    -3.434000000    -4.217000000    -2.261000000
O    -4.742000000    -4.694000000    -2.039000000
C    -2.314000000    -4.870000000    -1.785000000
H    -2.512000000    -5.793000000    -1.246000000
C    -1.021000000    -4.436000000    -2.019000000
O     0.020000000    -5.264000000    -1.701000000
C     1.129000000    -5.400000000    -2.495000000
C     2.375000000    -5.136000000    -1.898000000
H     2.437000000    -4.877000000    -0.844000000
C     1.164000000    -5.768000000    -3.845000000
H     0.232000000    -6.128000000    -4.274000000
C     2.392000000    -6.011000000    -4.509000000
H     2.438000000    -6.387000000    -5.528000000
C     3.609000000    -5.702000000    -3.930000000
H     4.588000000    -5.816000000    -4.388000000
C     3.571000000    -5.244000000    -2.608000000
O     4.692000000    -4.889000000    -1.873000000
C     5.108000000    -3.645000000    -1.483000000
C     6.030000000    -3.519000000    -0.442000000
H     6.542000000    -4.379000000    -0.017000000
C     6.253000000    -2.263000000     0.121000000
O     7.090000000    -2.176000000     1.301000000
C     6.871000000    -1.332000000     2.410000000
C     5.787000000    -1.358000000     3.257000000
H     5.011000000    -2.104000000     3.107000000
C     7.891000000    -0.394000000     2.650000000
H     8.727000000    -0.344000000     1.958000000
C     7.805000000     0.517000000     3.710000000
H     8.694000000     1.128000000     3.838000000
C     6.716000000     0.470000000     4.594000000
H     6.614000000     1.165000000     5.424000000
C     5.664000000    -0.414000000     4.331000000
O     4.532000000    -0.421000000     5.161000000
C     3.355000000     0.349000000     4.933000000
C     2.327000000     0.137000000     5.865000000
H     2.536000000    -0.443000000     6.760000000
C     1.114000000     0.813000000     5.686000000
O     0.186000000     0.671000000     6.709000000
C    -1.196000000     0.864000000     6.477000000
C    -1.935000000    -0.033000000     5.744000000
H    -1.485000000    -0.933000000     5.334000000
C    -1.831000000     2.051000000     6.816000000
H    -1.302000000     2.869000000     7.298000000
C    -3.194000000     2.241000000     6.565000000
H    -3.573000000     3.257000000     6.638000000
C    -3.945000000     1.207000000     5.998000000
H    -5.000000000     1.264000000     5.742000000
C    -3.298000000     0.076000000     5.599000000
O    -4.045000000    -0.818000000     4.857000000
C    -4.577000000    -0.576000000     3.630000000
C    -5.607000000    -1.324000000     3.158000000
H    -5.881000000    -2.245000000     3.666000000
C    -6.150000000    -1.136000000     1.885000000
O    -7.036000000    -2.045000000     1.356000000
C    -6.927000000    -2.608000000     0.071000000
C    -7.949000000    -2.297000000    -0.798000000
H    -8.812000000    -1.728000000    -0.462000000
C    -7.965000000    -2.901000000    -2.028000000
H    -8.784000000    -2.789000000    -2.733000000
C    -6.915000000    -3.761000000    -2.392000000
H    -7.000000000    -4.264000000    -3.352000000
C    -5.792000000    -3.975000000    -1.561000000
C    -5.893000000    -3.464000000    -0.286000000
H    -5.080000000    -3.424000000     0.435000000
C     1.044000000    -1.169000000     1.491000000
H     1.973000000    -1.374000000     2.017000000
C     1.086000000    -0.154000000     0.533000000
H     2.074000000     0.271000000     0.371000000
C    -0.116000000     0.260000000    -0.102000000
H    -0.030000000     1.137000000    -0.805000000
C    -1.301000000    -0.382000000     0.175000000
H    -2.208000000    -0.235000000    -0.406000000
C    -1.280000000    -1.460000000     1.139000000
H    -2.177000000    -2.051000000     1.311000000
C    -0.146000000    -1.786000000     1.874000000
C    -0.222000000    -2.700000000     3.106000000
O    -1.332000000    -3.137000000     3.389000000
O     0.710000000    -2.856000000     3.826000000
O    -2.730000000    -4.709000000     1.801000000
H    -2.296000000    -4.089000000     2.387000000
H    -2.323000000    -5.552000000     2.001000000
O     4.190000000    -3.018000000     6.037000000
H     4.272000000    -3.400000000     6.911000000
H     4.381000000    -2.089000000     6.163000000
O     1.043000000    -3.760000000     6.500000000
H     1.945000000    -4.061000000     6.393000000
H     0.885000000    -3.200000000     5.741000000
O     2.974000000    -4.023000000     3.802000000
H     3.289000000    -3.569000000     4.583000000
H     2.184000000    -3.546000000     3.549000000
O     0.092000000    -5.889000000     3.806000000
H     0.327000000    -4.973000000     3.957000000
H     0.282000000    -6.034000000     2.879000000
O    -2.026000000    -7.409000000     5.258000000
H    -1.599000000    -7.576000000     6.098000000
H    -1.417000000    -6.839000000     4.788000000
O     4.546000000    -5.828000000     2.098000000
H     5.447000000    -5.705000000     2.394000000
H     4.049000000    -5.148000000     2.553000000
O     1.704000000    -3.735000000     9.319000000
H     2.575000000    -4.117000000     9.210000000
H     1.416000000    -3.535000000     8.429000000
O     1.400000000    -8.554000000     4.065000000
H     0.858000000    -9.291000000     3.782000000
H     0.932000000    -7.779000000     3.755000000
O    -1.922000000    -7.431000000     2.156000000
H    -2.225000000    -7.743000000     1.304000000
H    -2.391000000    -7.973000000     2.790000000
O     0.385000000    -6.663000000     1.001000000
H     0.251000000    -6.217000000     0.164000000
H    -0.460000000    -6.597000000     1.445000000
O    -3.280000000    -4.036000000     4.859000000
H    -2.743000000    -3.702000000     4.141000000
H    -2.718000000    -3.965000000     5.631000000
O    -1.859000000    -1.268000000     9.173000000
H    -2.159000000    -1.813000000     8.446000000
H    -2.539000000    -0.602000000     9.269000000
O    -5.331000000    -6.112000000     1.892000000
H    -5.053000000    -6.826000000     1.318000000
H    -4.541000000    -5.588000000     2.021000000
O    -3.937000000    -6.203000000     6.974000000
H    -4.491000000    -5.683000000     6.391000000
H    -3.247000000    -6.545000000     6.406000000
O    -0.245000000    -6.024000000     7.427000000
H     0.074000000    -5.158000000     7.172000000
H     0.412000000    -6.630000000     7.086000000
O    -2.299000000    -4.704000000     8.505000000
H    -2.943000000    -5.270000000     8.080000000
H    -1.457000000    -5.121000000     8.322000000
O     3.372000000    -7.294000000     0.260000000
H     2.434000000    -7.344000000     0.441000000
H     3.694000000    -6.609000000     0.846000000
O    -5.855000000    -4.840000000     5.360000000
H    -5.073000000    -4.450000000     4.969000000
H    -6.525000000    -4.160000000     5.285000000
