215
-1458.48514
C     4.982000000    -1.707000000     0.250000000
H     4.848000000    -0.749000000     0.745000000
C     4.501000000    -1.820000000    -1.043000000
C     4.350000000    -3.107000000    -1.682000000
H     3.962000000    -3.208000000    -2.693000000
C     3.962000000    -0.515000000    -1.683000000
O     4.730000000     0.689000000    -1.305000000
H     2.921000000    -0.353000000    -1.367000000
O     3.984000000    -0.565000000    -3.103000000
C     2.887000000    -0.059000000    -3.843000000
C     1.836000000    -0.961000000    -4.169000000
H     1.990000000    -2.031000000    -4.054000000
C     0.637000000    -0.424000000    -4.673000000
O    -0.347000000    -1.388000000    -4.682000000
C     0.372000000     0.928000000    -4.838000000
C    -1.012000000     1.361000000    -5.330000000
H    -0.923000000     2.296000000    -5.885000000
C    -1.905000000     1.672000000    -4.153000000
C    -1.999000000     2.927000000    -3.577000000
H    -1.435000000     3.752000000    -4.002000000
H    -1.428000000     0.679000000    -6.075000000
C     1.470000000     1.785000000    -4.630000000
H     1.277000000     2.851000000    -4.716000000
C     2.713000000     1.326000000    -4.081000000
C     3.763000000     2.279000000    -3.539000000
H     3.719000000     3.222000000    -4.088000000
H     4.741000000     1.810000000    -3.661000000
C     3.608000000     2.646000000    -2.021000000
C     2.842000000     3.733000000    -1.632000000
H     2.446000000     4.313000000    -2.462000000
C     4.130000000     1.825000000    -1.043000000
C     3.991000000     2.166000000     0.272000000
H     4.610000000     1.632000000     0.989000000
C     3.218000000     3.240000000     0.693000000
O     3.024000000     3.561000000     2.000000000
C     1.706000000     3.175000000     2.534000000
C     1.677000000     2.476000000     3.873000000
C     0.706000000     2.615000000     4.850000000
H    -0.067000000     3.376000000     4.778000000
C     2.660000000     1.480000000     4.112000000
H     3.369000000     1.302000000     3.307000000
O     0.881000000     4.307000000     2.516000000
H     1.254000000     2.437000000     1.855000000
C     2.592000000     4.016000000    -0.294000000
C     1.734000000     5.220000000     0.007000000
H     1.776000000     5.994000000    -0.763000000
H     2.163000000     5.737000000     0.867000000
C     0.335000000     4.901000000     0.278000000
C    -0.612000000     4.849000000    -0.735000000
H    -0.255000000     4.953000000    -1.757000000
C    -0.054000000     4.395000000     1.512000000
C    -1.342000000     3.985000000     1.726000000
H    -1.591000000     3.609000000     2.715000000
C    -2.302000000     3.874000000     0.720000000
O    -3.536000000     3.233000000     0.922000000
C    -3.654000000     1.898000000     0.454000000
C    -4.338000000     0.895000000     1.362000000
C    -4.075000000     0.918000000     2.723000000
H    -3.398000000     1.685000000     3.091000000
C    -5.296000000     0.005000000     0.851000000
H    -5.367000000    -0.089000000    -0.230000000
O    -4.356000000     2.037000000    -0.766000000
H    -2.660000000     1.590000000     0.096000000
C    -1.935000000     4.343000000    -0.525000000
C    -2.898000000     4.404000000    -1.737000000
H    -2.605000000     5.195000000    -2.430000000
H    -3.931000000     4.662000000    -1.494000000
C    -2.875000000     3.037000000    -2.466000000
C    -3.646000000     1.948000000    -1.950000000
C    -3.585000000     0.740000000    -2.591000000
H    -4.197000000    -0.075000000    -2.213000000
C    -2.668000000     0.623000000    -3.595000000
O    -2.459000000    -0.653000000    -4.064000000
C    -1.337000000    -1.390000000    -3.646000000
H    -0.951000000    -0.991000000    -2.696000000
C    -1.660000000    -2.797000000    -3.228000000
C    -0.671000000    -3.622000000    -2.692000000
H     0.377000000    -3.351000000    -2.796000000
C    -3.014000000    -3.175000000    -3.171000000
H    -3.815000000    -2.477000000    -3.401000000
C    -3.357000000    -4.289000000    -2.418000000
O    -4.681000000    -4.592000000    -2.201000000
C    -2.370000000    -5.185000000    -1.980000000
H    -2.553000000    -5.966000000    -1.246000000
C    -1.017000000    -4.843000000    -2.129000000
O     0.031000000    -5.593000000    -1.580000000
C     1.241000000    -5.759000000    -2.269000000
C     2.396000000    -5.392000000    -1.634000000
H     2.275000000    -5.027000000    -0.618000000
C     1.200000000    -6.221000000    -3.597000000
H     0.278000000    -6.494000000    -4.105000000
C     2.417000000    -6.415000000    -4.270000000
H     2.390000000    -6.904000000    -5.241000000
C     3.613000000    -6.178000000    -3.568000000
H     4.532000000    -6.304000000    -4.135000000
C     3.615000000    -5.666000000    -2.279000000
O     4.811000000    -5.368000000    -1.692000000
C     4.987000000    -4.151000000    -1.105000000
C     5.585000000    -4.083000000     0.134000000
H     6.065000000    -5.010000000     0.435000000
C     5.548000000    -2.865000000     0.872000000
O     6.118000000    -2.828000000     2.132000000
C     6.061000000    -1.766000000     3.052000000
C     4.917000000    -1.642000000     3.835000000
H     4.194000000    -2.454000000     3.812000000
C     7.194000000    -0.861000000     3.276000000
H     8.102000000    -0.912000000     2.681000000
C     7.057000000     0.167000000     4.255000000
H     7.779000000     0.976000000     4.324000000
C     5.809000000     0.317000000     4.857000000
H     5.682000000     1.066000000     5.634000000
C     4.721000000    -0.601000000     4.665000000
O     3.482000000    -0.492000000     5.292000000
C     2.644000000     0.665000000     5.258000000
C     1.671000000     0.773000000     6.197000000
H     1.538000000     0.054000000     7.001000000
C     0.627000000     1.743000000     5.983000000
O    -0.457000000     1.666000000     6.864000000
C    -1.739000000     1.829000000     6.471000000
C    -2.496000000     0.803000000     5.919000000
H    -2.049000000    -0.167000000     5.718000000
C    -2.313000000     3.066000000     6.780000000
H    -1.730000000     3.820000000     7.304000000
C    -3.635000000     3.321000000     6.559000000
H    -4.037000000     4.296000000     6.823000000
C    -4.467000000     2.357000000     5.825000000
H    -5.492000000     2.582000000     5.540000000
C    -3.824000000     1.085000000     5.564000000
O    -4.506000000     0.083000000     4.977000000
C    -4.690000000     0.016000000     3.589000000
C    -5.504000000    -0.961000000     3.043000000
H    -5.940000000    -1.666000000     3.746000000
C    -5.859000000    -0.934000000     1.704000000
O    -6.587000000    -1.967000000     1.148000000
C    -6.707000000    -2.367000000    -0.113000000
C    -7.646000000    -1.865000000    -1.033000000
H    -8.431000000    -1.171000000    -0.746000000
C    -7.507000000    -2.217000000    -2.366000000
H    -8.243000000    -1.723000000    -2.995000000
C    -6.506000000    -3.068000000    -2.804000000
H    -6.431000000    -3.396000000    -3.837000000
C    -5.583000000    -3.628000000    -1.845000000
C    -5.719000000    -3.252000000    -0.539000000
H    -5.023000000    -3.607000000     0.217000000
C     1.045000000    -1.078000000     1.998000000
H     1.920000000    -1.282000000     2.611000000
C     1.136000000    -0.131000000     1.019000000
H     2.134000000     0.273000000     0.868000000
C     0.074000000     0.164000000     0.186000000
H     0.221000000     0.950000000    -0.531000000
C    -1.130000000    -0.531000000     0.315000000
H    -1.977000000    -0.416000000    -0.358000000
C    -1.268000000    -1.472000000     1.295000000
H    -2.176000000    -2.053000000     1.435000000
C    -0.169000000    -1.797000000     2.117000000
C    -0.402000000    -2.641000000     3.354000000
O    -1.325000000    -3.403000000     3.401000000
O     0.433000000    -2.582000000     4.224000000
O    -2.726000000    -4.760000000     1.264000000
H    -2.558000000    -4.203000000     2.024000000
H    -1.856000000    -4.989000000     0.937000000
O     3.469000000    -4.982000000     7.326000000
H     3.641000000    -5.502000000     6.541000000
H     2.958000000    -4.236000000     7.011000000
O     2.092000000    -2.800000000     6.250000000
H     1.599000000    -2.704000000     5.435000000
H     2.620000000    -2.003000000     6.306000000
O     2.108000000    -4.020000000     2.586000000
H     1.697000000    -3.681000000     3.381000000
H     1.739000000    -3.489000000     1.880000000
O    -3.621000000    -3.439000000     4.794000000
H    -3.430000000    -2.825000000     5.503000000
H    -2.774000000    -3.592000000     4.375000000
O    -1.461000000    -5.808000000     4.690000000
H    -1.344000000    -4.984000000     4.216000000
H    -1.466000000    -6.478000000     4.006000000
O    -3.319000000    -6.356000000     6.599000000
H    -2.627000000    -6.382000000     5.937000000
H    -4.104000000    -6.102000000     6.114000000
O     4.195000000    -5.615000000     3.045000000
H     3.710000000    -6.416000000     3.243000000
H     3.538000000    -4.921000000     3.086000000
O     0.336000000    -4.519000000     9.516000000
H     0.724000000    -4.812000000     8.692000000
H    -0.422000000    -5.090000000     9.641000000
O    -0.407000000    -6.443000000     1.225000000
H     0.101000000    -6.827000000     0.511000000
H     0.246000000    -6.032000000     1.791000000
O    -1.736000000    -8.225000000     2.965000000
H    -1.175000000    -7.752000000     2.350000000
H    -2.075000000    -8.964000000     2.461000000
O    -3.387000000    -1.382000000     7.872000000
H    -3.206000000    -2.168000000     8.387000000
H    -2.549000000    -0.922000000     7.834000000
O    -4.349000000    -8.198000000     4.293000000
H    -4.293000000    -9.124000000     4.527000000
H    -3.498000000    -7.997000000     3.903000000
O     0.672000000    -6.012000000     6.716000000
H     0.365000000    -6.872000000     7.006000000
H    -0.015000000    -5.699000000     6.127000000
O    -4.512000000    -7.042000000     0.188000000
H    -4.026000000    -6.321000000     0.588000000
H    -4.286000000    -6.998000000    -0.740000000
O     3.001000000    -7.828000000     4.156000000
H     2.140000000    -8.221000000     4.294000000
H     3.211000000    -7.413000000     4.992000000
O    -0.555000000    -2.958000000     6.738000000
H    -0.328000000    -2.946000000     5.808000000
H     0.277000000    -2.816000000     7.190000000
O    -2.593000000    -4.014000000     8.075000000
H    -2.788000000    -4.908000000     7.792000000
H    -2.013000000    -3.669000000     7.395000000
O    -6.082000000    -4.031000000     6.939000000
H    -5.938000000    -4.724000000     6.293000000
H    -5.240000000    -3.580000000     6.996000000
