215
-1441.75770
C     5.072000000    -2.188000000     0.552000000
H     5.311000000    -1.265000000     1.073000000
C     4.487000000    -2.134000000    -0.749000000
C     4.051000000    -3.335000000    -1.303000000
H     3.519000000    -3.201000000    -2.241000000
C     4.137000000    -0.817000000    -1.344000000
O     4.940000000     0.260000000    -0.914000000
H     3.150000000    -0.486000000    -0.987000000
O     4.080000000    -0.917000000    -2.740000000
C     3.017000000    -0.428000000    -3.517000000
C     1.916000000    -1.302000000    -3.773000000
H     1.851000000    -2.283000000    -3.310000000
C     0.809000000    -0.770000000    -4.353000000
O    -0.274000000    -1.644000000    -4.584000000
C     0.775000000     0.613000000    -4.691000000
C    -0.446000000     1.269000000    -5.407000000
H    -0.196000000     2.127000000    -6.035000000
C    -1.538000000     1.608000000    -4.352000000
C    -1.495000000     2.926000000    -3.785000000
H    -0.946000000     3.774000000    -4.185000000
H    -0.925000000     0.668000000    -6.182000000
C     1.749000000     1.516000000    -4.369000000
H     1.535000000     2.572000000    -4.510000000
C     2.899000000     0.977000000    -3.700000000
C     4.004000000     1.948000000    -3.234000000
H     3.972000000     2.909000000    -3.753000000
H     4.980000000     1.557000000    -3.527000000
C     3.888000000     2.287000000    -1.781000000
C     3.100000000     3.413000000    -1.439000000
H     2.837000000     4.105000000    -2.235000000
C     4.250000000     1.423000000    -0.730000000
C     3.896000000     1.788000000     0.577000000
H     4.118000000     1.131000000     1.414000000
C     3.228000000     2.991000000     0.861000000
O     2.847000000     3.227000000     2.160000000
C     1.563000000     2.926000000     2.536000000
C     1.540000000     2.153000000     3.844000000
C     0.505000000     2.305000000     4.731000000
H    -0.186000000     3.114000000     4.507000000
C     2.362000000     1.057000000     4.100000000
H     3.199000000     0.817000000     3.448000000
O     0.798000000     4.191000000     2.511000000
H     1.109000000     2.236000000     1.810000000
C     2.889000000     3.802000000    -0.125000000
C     2.194000000     5.108000000     0.152000000
H     2.642000000     5.847000000    -0.517000000
H     2.615000000     5.505000000     1.078000000
C     0.665000000     5.047000000     0.243000000
C    -0.119000000     5.183000000    -0.939000000
H     0.227000000     5.324000000    -1.960000000
C     0.118000000     4.483000000     1.409000000
C    -1.200000000     4.130000000     1.484000000
H    -1.524000000     3.640000000     2.398000000
C    -2.017000000     4.280000000     0.350000000
O    -3.341000000     3.824000000     0.472000000
C    -3.579000000     2.521000000    -0.008000000
C    -4.322000000     1.680000000     0.969000000
C    -4.333000000     2.101000000     2.294000000
H    -3.651000000     2.890000000     2.598000000
C    -4.823000000     0.396000000     0.640000000
H    -4.680000000    -0.022000000    -0.353000000
O    -4.167000000     2.596000000    -1.315000000
H    -2.585000000     2.060000000    -0.101000000
C    -1.486000000     4.769000000    -0.891000000
C    -2.373000000     4.714000000    -2.157000000
H    -1.975000000     5.389000000    -2.917000000
H    -3.320000000     5.121000000    -1.799000000
C    -2.316000000     3.261000000    -2.730000000
C    -3.210000000     2.296000000    -2.317000000
C    -3.333000000     1.015000000    -2.896000000
H    -4.031000000     0.287000000    -2.492000000
C    -2.492000000     0.703000000    -3.924000000
O    -2.491000000    -0.612000000    -4.300000000
C    -1.455000000    -1.458000000    -3.693000000
H    -1.113000000    -0.916000000    -2.798000000
C    -1.973000000    -2.900000000    -3.268000000
C    -1.006000000    -3.890000000    -3.099000000
H     0.044000000    -3.739000000    -3.336000000
C    -3.274000000    -3.129000000    -2.826000000
H    -4.016000000    -2.350000000    -2.986000000
C    -3.637000000    -4.395000000    -2.364000000
O    -4.916000000    -4.695000000    -2.081000000
C    -2.718000000    -5.401000000    -2.276000000
H    -2.904000000    -6.382000000    -1.845000000
C    -1.379000000    -5.164000000    -2.596000000
O    -0.520000000    -6.192000000    -2.298000000
C     0.742000000    -6.164000000    -2.753000000
C     1.759000000    -5.753000000    -1.898000000
H     1.492000000    -5.379000000    -0.913000000
C     1.021000000    -6.630000000    -4.002000000
H     0.190000000    -6.872000000    -4.659000000
C     2.309000000    -6.652000000    -4.481000000
H     2.657000000    -7.026000000    -5.440000000
C     3.369000000    -6.426000000    -3.571000000
H     4.390000000    -6.537000000    -3.927000000
C     3.064000000    -6.016000000    -2.205000000
O     3.986000000    -5.800000000    -1.250000000
C     4.274000000    -4.548000000    -0.635000000
C     4.998000000    -4.556000000     0.629000000
H     5.289000000    -5.483000000     1.115000000
C     5.343000000    -3.349000000     1.231000000
O     6.072000000    -3.346000000     2.382000000
C     5.817000000    -2.296000000     3.359000000
C     4.520000000    -2.060000000     3.900000000
H     3.697000000    -2.746000000     3.717000000
C     6.897000000    -1.450000000     3.698000000
H     7.875000000    -1.585000000     3.244000000
C     6.615000000    -0.361000000     4.567000000
H     7.416000000     0.316000000     4.855000000
C     5.369000000    -0.196000000     5.204000000
H     5.183000000     0.522000000     5.999000000
C     4.321000000    -1.062000000     4.845000000
O     3.047000000    -0.918000000     5.396000000
C     2.269000000     0.234000000     5.187000000
C     1.239000000     0.525000000     6.099000000
H     1.108000000    -0.098000000     6.981000000
C     0.268000000     1.525000000     5.839000000
O    -0.780000000     1.797000000     6.726000000
C    -1.903000000     2.505000000     6.315000000
C    -2.920000000     1.764000000     5.696000000
H    -2.680000000     0.755000000     5.371000000
C    -1.981000000     3.878000000     6.437000000
H    -1.210000000     4.395000000     7.003000000
C    -3.149000000     4.560000000     5.975000000
H    -3.200000000     5.642000000     6.062000000
C    -4.125000000     3.788000000     5.299000000
H    -5.040000000     4.318000000     5.049000000
C    -4.049000000     2.406000000     5.212000000
O    -5.069000000     1.662000000     4.646000000
C    -4.958000000     1.312000000     3.293000000
C    -5.555000000     0.126000000     2.907000000
H    -6.070000000    -0.452000000     3.670000000
C    -5.477000000    -0.414000000     1.599000000
O    -5.958000000    -1.673000000     1.411000000
C    -6.331000000    -2.253000000     0.228000000
C    -7.301000000    -1.656000000    -0.602000000
H    -7.831000000    -0.797000000    -0.199000000
C    -7.574000000    -2.166000000    -1.881000000
H    -8.351000000    -1.726000000    -2.502000000
C    -6.819000000    -3.254000000    -2.353000000
H    -6.944000000    -3.576000000    -3.384000000
C    -5.812000000    -3.763000000    -1.580000000
C    -5.505000000    -3.252000000    -0.340000000
H    -4.653000000    -3.631000000     0.218000000
C     0.751000000    -1.507000000     2.003000000
H     1.414000000    -1.621000000     2.857000000
C     0.955000000    -0.518000000     1.074000000
H     1.790000000     0.172000000     1.165000000
C    -0.076000000    -0.209000000     0.152000000
H     0.011000000     0.586000000    -0.619000000
C    -1.219000000    -1.007000000     0.103000000
H    -2.095000000    -0.881000000    -0.527000000
C    -1.319000000    -2.010000000     1.080000000
H    -2.263000000    -2.525000000     0.923000000
C    -0.322000000    -2.379000000     2.023000000
C    -0.440000000    -3.420000000     2.997000000
O    -1.543000000    -3.756000000     3.257000000
O     0.544000000    -3.878000000     3.589000000
O    -2.827000000    -4.995000000     1.244000000
H    -2.516000000    -4.503000000     2.004000000
H    -2.029000000    -5.254000000     0.783000000
O    -2.572000000    -8.120000000     2.232000000
H    -2.219000000    -7.431000000     1.668000000
H    -3.301000000    -8.488000000     1.733000000
O     3.012000000    -2.285000000     8.140000000
H     3.758000000    -2.840000000     7.915000000
H     2.450000000    -2.312000000     7.366000000
O    -1.243000000    -5.026000000     8.238000000
H    -1.578000000    -5.897000000     8.026000000
H    -1.508000000    -4.480000000     7.498000000
O     1.784000000    -7.940000000     4.062000000
H     1.562000000    -7.829000000     4.987000000
H     1.963000000    -7.053000000     3.750000000
O    -1.294000000   -10.205000000     2.892000000
H    -2.026000000   -10.793000000     2.700000000
H    -1.653000000    -9.327000000     2.764000000
O     0.617000000    -3.237000000     6.526000000
H     0.778000000    -4.134000000     6.820000000
H     0.277000000    -3.334000000     5.636000000
O     2.808000000    -5.363000000     3.021000000
H     2.018000000    -4.837000000     3.146000000
H     2.930000000    -5.388000000     2.072000000
O    -5.331000000    -6.474000000     1.704000000
H    -5.923000000    -5.837000000     2.104000000
H    -4.559000000    -5.963000000     1.459000000
O    -2.222000000    -6.057000000     4.284000000
H    -2.261000000    -5.129000000     4.052000000
H    -2.235000000    -6.515000000     3.444000000
O     2.000000000    -6.139000000     7.372000000
H     1.335000000    -5.849000000     6.747000000
H     2.313000000    -6.971000000     7.018000000
O    -0.940000000    -6.783000000     0.311000000
H    -0.823000000    -6.848000000    -0.637000000
H    -0.080000000    -6.995000000     0.673000000
O    -6.004000000    -3.028000000     4.884000000
H    -5.797000000    -3.902000000     5.217000000
H    -5.170000000    -2.693000000     4.555000000
O     1.938000000    -7.379000000     0.879000000
H     2.093000000    -7.695000000     1.769000000
H     2.489000000    -7.936000000     0.328000000
O    -0.082000000    -1.611000000     9.149000000
H    -0.192000000    -2.287000000     9.817000000
H    -0.115000000    -2.086000000     8.319000000
O     0.421000000    -5.754000000     5.288000000
H     0.479000000    -5.015000000     4.682000000
H    -0.270000000    -6.308000000     4.925000000
O    -3.439000000    -1.820000000     4.072000000
H    -2.581000000    -2.043000000     3.711000000
H    -3.571000000    -0.905000000     3.826000000
O    -2.642000000    -3.784000000     6.134000000
H    -2.520000000    -3.209000000     5.378000000
H    -2.747000000    -4.657000000     5.757000000
O    -4.483000000    -2.046000000     7.910000000
H    -4.898000000    -2.824000000     8.283000000
H    -4.358000000    -2.260000000     6.986000000
