215
-1436.50006
C     5.563000000    -0.776000000     0.652000000
H     5.518000000     0.294000000     0.840000000
C     4.843000000    -1.265000000    -0.417000000
C     4.835000000    -2.703000000    -0.594000000
H     4.281000000    -3.154000000    -1.413000000
C     4.201000000    -0.246000000    -1.328000000
O     4.868000000     1.092000000    -1.276000000
H     3.166000000    -0.116000000    -0.977000000
O     4.160000000    -0.751000000    -2.675000000
C     3.077000000    -0.389000000    -3.391000000
C     2.170000000    -1.463000000    -3.667000000
H     2.295000000    -2.527000000    -3.483000000
C     1.005000000    -1.198000000    -4.359000000
O     0.039000000    -2.178000000    -4.462000000
C     0.751000000     0.027000000    -4.929000000
C    -0.600000000     0.339000000    -5.574000000
H    -0.562000000     1.231000000    -6.203000000
C    -1.743000000     0.552000000    -4.562000000
C    -2.088000000     1.905000000    -4.307000000
H    -1.543000000     2.721000000    -4.774000000
H    -0.852000000    -0.473000000    -6.259000000
C     1.668000000     1.110000000    -4.764000000
H     1.290000000     2.065000000    -5.120000000
C     2.877000000     0.866000000    -4.012000000
C     3.779000000     2.041000000    -3.800000000
H     3.637000000     2.619000000    -4.715000000
H     4.820000000     1.745000000    -3.945000000
C     3.477000000     2.660000000    -2.480000000
C     2.520000000     3.710000000    -2.401000000
H     1.966000000     4.001000000    -3.290000000
C     4.123000000     2.225000000    -1.282000000
C     3.714000000     2.751000000    -0.052000000
H     4.110000000     2.344000000     0.875000000
C     2.804000000     3.833000000     0.023000000
O     2.406000000     4.234000000     1.313000000
C     1.144000000     3.742000000     1.627000000
C     1.061000000     3.014000000     2.960000000
C    -0.079000000     2.916000000     3.718000000
H    -0.980000000     3.422000000     3.382000000
C     2.128000000     2.162000000     3.363000000
H     3.086000000     2.159000000     2.849000000
O     0.100000000     4.815000000     1.603000000
H     0.793000000     2.965000000     0.932000000
C     2.205000000     4.302000000    -1.154000000
C     1.182000000     5.464000000    -1.157000000
H     1.311000000     6.006000000    -2.096000000
H     1.318000000     6.221000000    -0.382000000
C    -0.294000000     5.042000000    -0.893000000
C    -1.208000000     4.746000000    -1.961000000
H    -0.891000000     4.832000000    -2.997000000
C    -0.695000000     4.813000000     0.465000000
C    -1.984000000     4.320000000     0.662000000
H    -2.279000000     4.096000000     1.683000000
C    -2.768000000     3.833000000    -0.367000000
O    -3.896000000     3.176000000    -0.147000000
C    -3.896000000     1.674000000    -0.314000000
C    -4.565000000     0.962000000     0.808000000
C    -5.063000000     1.650000000     1.911000000
H    -4.832000000     2.687000000     2.140000000
C    -4.813000000    -0.461000000     0.747000000
H    -4.400000000    -1.066000000    -0.056000000
O    -4.475000000     1.344000000    -1.580000000
H    -2.847000000     1.346000000    -0.266000000
C    -2.490000000     4.178000000    -1.696000000
C    -3.411000000     3.695000000    -2.897000000
H    -3.213000000     4.448000000    -3.663000000
H    -4.463000000     3.671000000    -2.605000000
C    -3.011000000     2.222000000    -3.292000000
C    -3.617000000     1.144000000    -2.568000000
C    -3.408000000    -0.146000000    -3.020000000
H    -3.912000000    -0.986000000    -2.547000000
C    -2.487000000    -0.455000000    -3.990000000
O    -2.137000000    -1.703000000    -4.113000000
C    -0.945000000    -2.210000000    -3.472000000
H    -0.557000000    -1.495000000    -2.732000000
C    -1.231000000    -3.541000000    -2.858000000
C    -0.178000000    -4.133000000    -2.106000000
H     0.837000000    -3.746000000    -2.089000000
C    -2.565000000    -4.026000000    -2.674000000
H    -3.458000000    -3.559000000    -3.081000000
C    -2.756000000    -5.142000000    -1.861000000
O    -4.020000000    -5.596000000    -1.518000000
C    -1.713000000    -5.799000000    -1.342000000
H    -1.774000000    -6.623000000    -0.636000000
C    -0.446000000    -5.321000000    -1.439000000
O     0.550000000    -5.953000000    -0.738000000
C     1.919000000    -5.982000000    -1.093000000
C     2.905000000    -5.494000000    -0.278000000
H     2.696000000    -4.979000000     0.656000000
C     2.292000000    -6.649000000    -2.263000000
H     1.514000000    -7.015000000    -2.929000000
C     3.633000000    -6.742000000    -2.617000000
H     3.835000000    -7.211000000    -3.577000000
C     4.643000000    -6.143000000    -1.805000000
H     5.686000000    -6.069000000    -2.102000000
C     4.312000000    -5.551000000    -0.601000000
O     5.266000000    -4.927000000     0.164000000
C     5.422000000    -3.581000000     0.370000000
C     6.208000000    -3.014000000     1.421000000
H     6.721000000    -3.683000000     2.107000000
C     6.324000000    -1.660000000     1.517000000
O     6.980000000    -1.144000000     2.644000000
C     6.370000000    -0.173000000     3.501000000
C     5.007000000    -0.189000000     3.737000000
H     4.488000000    -1.077000000     3.386000000
C     7.210000000     0.785000000     4.178000000
H     8.249000000     0.780000000     3.858000000
C     6.592000000     1.723000000     4.979000000
H     7.240000000     2.434000000     5.485000000
C     5.167000000     1.770000000     5.209000000
H     4.607000000     2.507000000     5.779000000
C     4.410000000     0.725000000     4.585000000
O     3.061000000     0.467000000     4.872000000
C     2.025000000     1.259000000     4.413000000
C     0.894000000     1.345000000     5.225000000
H     0.849000000     0.736000000     6.125000000
C    -0.141000000     2.150000000     4.868000000
O    -1.298000000     2.010000000     5.695000000
C    -2.514000000     2.589000000     5.442000000
C    -3.448000000     1.840000000     4.782000000
H    -3.207000000     0.799000000     4.581000000
C    -2.864000000     3.796000000     6.005000000
H    -2.155000000     4.328000000     6.634000000
C    -4.167000000     4.316000000     5.925000000
H    -4.387000000     5.141000000     6.597000000
C    -5.116000000     3.527000000     5.319000000
H    -6.177000000     3.751000000     5.381000000
C    -4.729000000     2.293000000     4.736000000
O    -5.724000000     1.580000000     4.137000000
C    -5.585000000     0.932000000     2.969000000
C    -5.786000000    -0.435000000     2.873000000
H    -6.050000000    -1.005000000     3.760000000
C    -5.341000000    -1.201000000     1.809000000
O    -5.563000000    -2.554000000     1.851000000
C    -5.750000000    -3.388000000     0.818000000
C    -7.103000000    -3.730000000     0.565000000
H    -7.875000000    -3.274000000     1.179000000
C    -7.358000000    -4.587000000    -0.474000000
H    -8.342000000    -4.922000000    -0.791000000
C    -6.303000000    -5.230000000    -1.045000000
H    -6.573000000    -6.045000000    -1.712000000
C    -4.998000000    -4.878000000    -0.834000000
C    -4.743000000    -3.845000000     0.078000000
H    -3.744000000    -3.451000000     0.242000000
C     1.559000000    -0.968000000     1.559000000
H     2.335000000    -0.864000000     2.313000000
C     1.386000000     0.065000000     0.638000000
H     2.093000000     0.891000000     0.619000000
C     0.282000000    -0.034000000    -0.235000000
H     0.072000000     0.872000000    -0.816000000
C    -0.576000000    -1.072000000    -0.195000000
H    -1.542000000    -1.005000000    -0.687000000
C    -0.423000000    -2.128000000     0.689000000
H    -1.159000000    -2.924000000     0.767000000
C     0.660000000    -2.026000000     1.660000000
C     0.948000000    -3.123000000     2.667000000
O     0.208000000    -4.068000000     2.825000000
O     2.042000000    -3.236000000     3.170000000
O     0.774000000    -7.687000000     7.928000000
H     0.986000000    -6.894000000     7.435000000
H     1.621000000    -8.102000000     8.091000000
O     1.375000000    -6.626000000     2.476000000
H     1.023000000    -5.764000000     2.698000000
H     0.621000000    -7.214000000     2.531000000
O    -0.815000000    -1.978000000     6.417000000
H    -0.650000000    -2.893000000     6.193000000
H    -1.233000000    -1.611000000     5.637000000
O    -3.405000000    -6.077000000     6.088000000
H    -2.620000000    -5.582000000     5.853000000
H    -3.072000000    -6.861000000     6.523000000
O     3.662000000    -5.208000000     3.229000000
H     3.004000000    -4.513000000     3.203000000
H     3.271000000    -5.926000000     2.732000000
O     6.633000000    -7.476000000     0.667000000
H     5.943000000    -6.835000000     0.494000000
H     7.378000000    -7.172000000     0.148000000
O    -0.901000000    -8.154000000     3.028000000
H    -0.787000000    -8.896000000     3.622000000
H    -1.473000000    -8.486000000     2.336000000
O     3.032000000    -9.133000000     1.032000000
H     2.884000000    -8.273000000     1.426000000
H     3.868000000    -9.047000000     0.575000000
O     6.025000000    -3.799000000     4.421000000
H     6.242000000    -2.998000000     3.944000000
H     5.255000000    -4.146000000     3.971000000
O     5.460000000    -3.072000000     7.066000000
H     4.572000000    -3.008000000     6.714000000
H     6.028000000    -2.980000000     6.301000000
O     1.812000000    -5.794000000     5.939000000
H     2.043000000    -4.878000000     6.097000000
H     2.638000000    -6.210000000     5.693000000
O    -3.962000000    -4.248000000     3.842000000
H    -4.021000000    -4.945000000     4.495000000
H    -3.638000000    -4.685000000     3.054000000
O     4.251000000    -6.938000000     5.298000000
H     4.140000000    -6.293000000     4.600000000
H     4.991000000    -7.474000000     5.013000000
O    -0.901000000    -4.932000000     5.163000000
H    -0.176000000    -5.545000000     5.288000000
H    -0.610000000    -4.358000000     4.455000000
O    -2.118000000    -1.418000000     4.108000000
H    -2.774000000    -2.115000000     4.126000000
H    -1.912000000    -1.307000000     3.180000000
O     2.734000000    -3.232000000     5.696000000
H     2.437000000    -2.461000000     6.178000000
H     2.494000000    -3.053000000     4.787000000
O    -2.167000000    -5.495000000     2.265000000
H    -1.866000000    -6.388000000     2.432000000
H    -1.376000000    -4.960000000     2.325000000
O     0.249000000    -0.668000000     8.758000000
H    -0.097000000    -1.258000000     8.088000000
H    -0.320000000     0.101000000     8.718000000
O     2.780000000    -1.441000000     7.702000000
H     3.300000000    -0.695000000     7.405000000
H     1.994000000    -1.049000000     8.083000000
