215
-1450.97054
C     4.728000000    -1.675000000     1.099000000
H     4.545000000    -0.628000000     1.328000000
C     4.533000000    -2.006000000    -0.219000000
C     4.470000000    -3.373000000    -0.555000000
H     4.256000000    -3.662000000    -1.581000000
C     4.208000000    -0.936000000    -1.260000000
O     4.977000000     0.238000000    -0.964000000
H     3.158000000    -0.609000000    -1.254000000
O     4.483000000    -1.368000000    -2.620000000
C     3.413000000    -1.096000000    -3.419000000
C     2.409000000    -2.013000000    -3.656000000
H     2.508000000    -2.979000000    -3.168000000
C     1.194000000    -1.696000000    -4.259000000
O     0.179000000    -2.703000000    -4.120000000
C     1.028000000    -0.476000000    -4.861000000
C    -0.187000000    -0.040000000    -5.602000000
H     0.073000000     0.748000000    -6.311000000
C    -1.235000000     0.583000000    -4.657000000
C    -1.350000000     1.951000000    -4.408000000
H    -0.672000000     2.658000000    -4.881000000
H    -0.601000000    -0.894000000    -6.143000000
C     2.012000000     0.456000000    -4.671000000
H     1.838000000     1.456000000    -5.060000000
C     3.181000000     0.239000000    -3.938000000
C     4.163000000     1.295000000    -3.745000000
H     4.015000000     2.056000000    -4.513000000
H     5.182000000     0.955000000    -3.938000000
C     3.928000000     1.978000000    -2.343000000
C     3.185000000     3.181000000    -2.318000000
H     2.750000000     3.573000000    -3.234000000
C     4.370000000     1.531000000    -1.101000000
C     4.062000000     2.243000000     0.074000000
H     4.512000000     1.865000000     0.989000000
C     3.323000000     3.371000000     0.101000000
O     2.938000000     3.919000000     1.319000000
C     1.553000000     3.536000000     1.720000000
C     1.393000000     3.045000000     3.141000000
C     0.146000000     3.073000000     3.715000000
H    -0.751000000     3.310000000     3.149000000
C     2.533000000     2.653000000     3.821000000
H     3.495000000     2.849000000     3.356000000
O     0.615000000     4.582000000     1.467000000
H     1.258000000     2.658000000     1.128000000
C     2.885000000     3.861000000    -1.121000000
C     2.040000000     5.083000000    -1.116000000
H     2.178000000     5.700000000    -2.006000000
H     2.265000000     5.826000000    -0.347000000
C     0.515000000     4.741000000    -0.907000000
C    -0.321000000     4.713000000    -1.971000000
H    -0.028000000     4.921000000    -2.997000000
C    -0.090000000     4.542000000     0.353000000
C    -1.436000000     4.195000000     0.473000000
H    -1.818000000     3.943000000     1.459000000
C    -2.227000000     4.093000000    -0.660000000
O    -3.492000000     3.617000000    -0.494000000
C    -3.700000000     2.211000000    -0.682000000
C    -4.642000000     1.761000000     0.540000000
C    -4.945000000     2.577000000     1.681000000
H    -4.658000000     3.625000000     1.722000000
C    -5.058000000     0.415000000     0.569000000
H    -4.663000000    -0.230000000    -0.212000000
O    -4.162000000     1.903000000    -2.028000000
H    -2.749000000     1.662000000    -0.605000000
C    -1.619000000     4.275000000    -1.901000000
C    -2.391000000     3.997000000    -3.143000000
H    -1.898000000     4.501000000    -3.977000000
H    -3.447000000     4.251000000    -3.032000000
C    -2.334000000     2.530000000    -3.590000000
C    -3.226000000     1.629000000    -2.985000000
C    -3.111000000     0.248000000    -3.221000000
H    -3.825000000    -0.324000000    -2.634000000
C    -2.134000000    -0.253000000    -4.057000000
O    -2.036000000    -1.654000000    -4.115000000
C    -1.053000000    -2.353000000    -3.240000000
H    -0.652000000    -1.626000000    -2.518000000
C    -1.516000000    -3.556000000    -2.499000000
C    -0.589000000    -4.538000000    -2.144000000
H     0.468000000    -4.375000000    -2.340000000
C    -2.888000000    -3.670000000    -2.211000000
H    -3.639000000    -2.914000000    -2.424000000
C    -3.305000000    -4.772000000    -1.486000000
O    -4.670000000    -5.025000000    -1.161000000
C    -2.391000000    -5.705000000    -1.040000000
H    -2.697000000    -6.532000000    -0.405000000
C    -1.007000000    -5.566000000    -1.327000000
O    -0.116000000    -6.465000000    -0.804000000
C     1.182000000    -6.561000000    -1.208000000
C     2.154000000    -6.095000000    -0.380000000
H     1.883000000    -5.509000000     0.495000000
C     1.520000000    -7.178000000    -2.419000000
H     0.655000000    -7.487000000    -3.001000000
C     2.874000000    -7.321000000    -2.759000000
H     3.152000000    -7.858000000    -3.662000000
C     3.836000000    -6.770000000    -1.956000000
H     4.864000000    -6.951000000    -2.258000000
C     3.453000000    -6.195000000    -0.719000000
O     4.456000000    -5.695000000     0.098000000
C     4.518000000    -4.347000000     0.403000000
C     4.577000000    -3.977000000     1.785000000
H     4.395000000    -4.723000000     2.555000000
C     4.721000000    -2.645000000     2.111000000
O     4.487000000    -2.294000000     3.349000000
C     4.965000000    -1.133000000     3.911000000
C     3.975000000    -0.319000000     4.501000000
H     2.914000000    -0.497000000     4.348000000
C     6.327000000    -1.058000000     4.298000000
H     7.005000000    -1.852000000     3.997000000
C     6.717000000    -0.039000000     5.126000000
H     7.757000000     0.054000000     5.428000000
C     5.841000000     0.956000000     5.571000000
H     6.227000000     1.707000000     6.256000000
C     4.426000000     0.786000000     5.247000000
O     3.490000000     1.607000000     5.761000000
C     2.382000000     2.088000000     5.112000000
C     1.093000000     2.038000000     5.675000000
H     0.880000000     1.672000000     6.676000000
C     0.015000000     2.594000000     5.027000000
O    -1.175000000     2.615000000     5.728000000
C    -2.266000000     3.287000000     5.190000000
C    -3.457000000     2.667000000     4.912000000
H    -3.489000000     1.589000000     5.045000000
C    -2.193000000     4.671000000     5.178000000
H    -1.344000000     5.221000000     5.575000000
C    -3.335000000     5.406000000     4.828000000
H    -3.370000000     6.486000000     4.943000000
C    -4.530000000     4.769000000     4.450000000
H    -5.413000000     5.363000000     4.227000000
C    -4.608000000     3.378000000     4.410000000
O    -5.740000000     2.662000000     3.930000000
C    -5.576000000     1.994000000     2.761000000
C    -6.029000000     0.656000000     2.746000000
H    -6.439000000     0.232000000     3.659000000
C    -5.672000000    -0.099000000     1.686000000
O    -6.003000000    -1.421000000     1.846000000
C    -6.211000000    -2.243000000     0.774000000
C    -7.453000000    -2.192000000     0.148000000
H    -8.180000000    -1.462000000     0.494000000
C    -7.795000000    -3.119000000    -0.866000000
H    -8.750000000    -3.174000000    -1.383000000
C    -6.876000000    -4.035000000    -1.283000000
H    -7.199000000    -4.782000000    -2.004000000
C    -5.620000000    -4.074000000    -0.684000000
C    -5.285000000    -3.215000000     0.361000000
H    -4.384000000    -3.300000000     0.964000000
C     1.048000000    -1.853000000     1.577000000
H     1.867000000    -2.094000000     2.250000000
C     1.022000000    -0.602000000     0.878000000
H     1.793000000     0.153000000     1.010000000
C    -0.096000000    -0.368000000     0.058000000
H    -0.177000000     0.617000000    -0.318000000
C    -1.194000000    -1.280000000     0.044000000
H    -2.115000000    -0.992000000    -0.457000000
C    -1.107000000    -2.518000000     0.660000000
H    -1.971000000    -3.178000000     0.683000000
C     0.044000000    -2.822000000     1.402000000
C     0.011000000    -4.003000000     2.288000000
O    -1.109000000    -4.470000000     2.619000000
O     1.010000000    -4.642000000     2.594000000
O    -3.638000000    -1.207000000     6.197000000
H    -3.134000000    -1.610000000     5.489000000
H    -4.546000000    -1.441000000     6.007000000
O    -1.990000000    -7.005000000     2.149000000
H    -2.862000000    -6.887000000     2.525000000
H    -1.539000000    -6.179000000     2.326000000
O    -2.021000000     0.439000000     2.794000000
H    -2.266000000    -0.379000000     3.227000000
H    -1.157000000     0.263000000     2.420000000
O     3.521000000    -7.673000000     3.972000000
H     2.951000000    -8.441000000     3.916000000
H     3.132000000    -7.042000000     3.367000000
O     3.635000000    -5.904000000     6.693000000
H     3.733000000    -6.764000000     6.286000000
H     3.136000000    -5.392000000     6.056000000
O     2.600000000    -3.705000000     4.613000000
H     3.029000000    -3.014000000     4.108000000
H     2.019000000    -4.135000000     3.986000000
O     0.467000000    -7.101000000     3.245000000
H     0.526000000    -6.163000000     3.064000000
H    -0.310000000    -7.389000000     2.767000000
O    -4.638000000    -6.333000000     2.744000000
H    -4.756000000    -5.537000000     3.263000000
H    -5.458000000    -6.426000000     2.259000000
O     1.188000000    -7.683000000     5.932000000
H     1.927000000    -8.284000000     5.838000000
H     0.886000000    -7.533000000     5.036000000
O    -1.107000000    -9.390000000     0.588000000
H    -1.132000000    -8.462000000     0.820000000
H    -0.682000000    -9.412000000    -0.269000000
O    -4.410000000    -4.320000000     4.675000000
H    -4.308000000    -4.733000000     5.533000000
H    -5.315000000    -4.008000000     4.665000000
O    -0.929000000    -6.705000000     7.344000000
H    -0.279000000    -7.209000000     6.854000000
H    -1.223000000    -6.032000000     6.730000000
O     2.175000000    -8.642000000     1.124000000
H     1.553000000    -7.942000000     1.326000000
H     2.390000000    -9.024000000     1.975000000
O    -1.589000000    -5.010000000     5.340000000
H    -2.489000000    -5.243000000     5.110000000
H    -1.214000000    -4.673000000     4.526000000
O     1.566000000    -2.391000000     6.830000000
H     1.923000000    -2.923000000     6.120000000
H     1.869000000    -2.823000000     7.629000000
O    -2.572000000    -2.355000000     3.726000000
H    -2.151000000    -2.580000000     2.896000000
H    -3.265000000    -3.007000000     3.828000000
O    -2.973000000    -8.559000000     4.554000000
H    -2.417000000    -8.115000000     5.195000000
H    -3.852000000    -8.519000000     4.932000000
O    -1.171000000    -0.297000000     7.418000000
H    -1.825000000    -0.306000000     6.719000000
H    -0.440000000    -0.808000000     7.069000000
O    -0.937000000    -3.663000000     7.670000000
H    -0.069000000    -3.720000000     8.070000000
H    -0.797000000    -3.914000000     6.757000000
