215
-1446.82565
C     5.417000000    -1.116000000     0.253000000
H     5.764000000    -0.086000000     0.231000000
C     4.627000000    -1.547000000    -0.785000000
C     4.325000000    -2.907000000    -0.786000000
H     3.585000000    -3.248000000    -1.506000000
C     3.975000000    -0.668000000    -1.778000000
O     4.575000000     0.586000000    -1.885000000
H     2.971000000    -0.526000000    -1.353000000
O     3.829000000    -1.240000000    -3.095000000
C     2.678000000    -1.036000000    -3.700000000
C     1.828000000    -2.121000000    -3.704000000
H     2.134000000    -3.090000000    -3.320000000
C     0.483000000    -1.965000000    -4.151000000
O    -0.377000000    -3.003000000    -3.920000000
C     0.119000000    -0.811000000    -4.840000000
C    -1.250000000    -0.582000000    -5.485000000
H    -1.185000000     0.086000000    -6.346000000
C    -2.227000000    -0.044000000    -4.485000000
C    -2.373000000     1.309000000    -4.186000000
H    -1.827000000     1.994000000    -4.828000000
H    -1.589000000    -1.465000000    -6.031000000
C     1.067000000     0.234000000    -4.888000000
H     0.727000000     1.142000000    -5.380000000
C     2.372000000     0.127000000    -4.388000000
C     3.245000000     1.307000000    -4.365000000
H     3.122000000     2.027000000    -5.177000000
H     4.279000000     0.955000000    -4.382000000
C     3.055000000     2.055000000    -3.118000000
C     2.206000000     3.111000000    -2.999000000
H     1.511000000     3.377000000    -3.791000000
C     3.835000000     1.717000000    -1.991000000
C     3.703000000     2.378000000    -0.783000000
H     4.322000000     2.152000000     0.082000000
C     2.802000000     3.446000000    -0.660000000
O     2.724000000     3.984000000     0.611000000
C     1.452000000     3.795000000     1.318000000
C     1.603000000     3.575000000     2.793000000
C     0.655000000     4.014000000     3.706000000
H    -0.195000000     4.545000000     3.285000000
C     2.625000000     2.735000000     3.223000000
H     3.194000000     2.142000000     2.511000000
O     0.450000000     4.793000000     1.063000000
H     1.112000000     2.835000000     0.903000000
C     2.086000000     3.846000000    -1.813000000
C     1.111000000     5.012000000    -1.790000000
H     1.109000000     5.455000000    -2.788000000
H     1.467000000     5.787000000    -1.108000000
C    -0.227000000     4.598000000    -1.273000000
C    -1.187000000     4.106000000    -2.244000000
H    -0.948000000     4.109000000    -3.304000000
C    -0.520000000     4.543000000     0.093000000
C    -1.693000000     3.991000000     0.493000000
H    -1.880000000     3.867000000     1.557000000
C    -2.718000000     3.679000000    -0.433000000
O    -3.871000000     3.112000000    -0.007000000
C    -3.829000000     1.693000000    -0.001000000
C    -4.294000000     1.150000000     1.370000000
C    -4.307000000     1.928000000     2.522000000
H    -4.165000000     3.006000000     2.535000000
C    -4.599000000    -0.195000000     1.537000000
H    -4.323000000    -0.850000000     0.715000000
O    -4.512000000     1.133000000    -1.129000000
H    -2.767000000     1.406000000    -0.006000000
C    -2.457000000     3.707000000    -1.806000000
C    -3.460000000     3.287000000    -2.909000000
H    -3.282000000     3.988000000    -3.728000000
H    -4.480000000     3.322000000    -2.521000000
C    -3.246000000     1.793000000    -3.120000000
C    -3.835000000     0.798000000    -2.309000000
C    -3.674000000    -0.536000000    -2.630000000
H    -4.149000000    -1.191000000    -1.903000000
C    -2.885000000    -0.989000000    -3.678000000
O    -2.650000000    -2.329000000    -3.747000000
C    -1.404000000    -2.789000000    -3.029000000
H    -1.159000000    -1.998000000    -2.305000000
C    -1.729000000    -4.051000000    -2.252000000
C    -0.643000000    -4.911000000    -1.969000000
H     0.296000000    -4.655000000    -2.452000000
C    -3.026000000    -4.331000000    -1.696000000
H    -3.854000000    -3.692000000    -1.993000000
C    -3.183000000    -5.426000000    -0.851000000
O    -4.413000000    -5.696000000    -0.301000000
C    -2.080000000    -6.250000000    -0.600000000
H    -2.312000000    -6.954000000     0.196000000
C    -0.857000000    -6.076000000    -1.195000000
O     0.225000000    -7.009000000    -1.107000000
C     1.555000000    -6.682000000    -1.328000000
C     2.318000000    -6.003000000    -0.424000000
H     2.016000000    -5.741000000     0.586000000
C     2.104000000    -7.041000000    -2.533000000
H     1.505000000    -7.605000000    -3.243000000
C     3.410000000    -6.729000000    -2.868000000
H     3.789000000    -6.953000000    -3.863000000
C     4.150000000    -6.048000000    -1.926000000
H     5.195000000    -5.816000000    -2.116000000
C     3.641000000    -5.688000000    -0.681000000
O     4.433000000    -5.050000000     0.218000000
C     4.772000000    -3.732000000     0.157000000
C     5.358000000    -3.203000000     1.290000000
H     5.521000000    -3.835000000     2.159000000
C     5.743000000    -1.907000000     1.341000000
O     6.443000000    -1.454000000     2.471000000
C     6.236000000    -0.198000000     3.013000000
C     4.951000000     0.084000000     3.630000000
H     4.104000000    -0.596000000     3.594000000
C     7.202000000     0.774000000     2.876000000
H     8.147000000     0.548000000     2.390000000
C     7.025000000     1.944000000     3.558000000
H     7.811000000     2.694000000     3.571000000
C     5.851000000     2.218000000     4.264000000
H     5.819000000     3.067000000     4.941000000
C     4.825000000     1.319000000     4.248000000
O     3.757000000     1.583000000     4.997000000
C     2.705000000     2.362000000     4.540000000
C     1.764000000     2.836000000     5.504000000
H     1.848000000     2.507000000     6.537000000
C     0.733000000     3.659000000     5.072000000
O    -0.291000000     3.946000000     5.953000000
C    -1.590000000     4.204000000     5.585000000
C    -2.406000000     3.130000000     5.202000000
H    -2.121000000     2.083000000     5.138000000
C    -1.991000000     5.504000000     5.697000000
H    -1.281000000     6.292000000     5.933000000
C    -3.239000000     5.766000000     5.276000000
H    -3.564000000     6.796000000     5.401000000
C    -4.058000000     4.725000000     5.000000000
H    -5.105000000     4.941000000     4.800000000
C    -3.717000000     3.392000000     4.996000000
O    -4.662000000     2.343000000     4.859000000
C    -4.589000000     1.433000000     3.784000000
C    -4.916000000     0.086000000     3.915000000
H    -5.104000000    -0.289000000     4.918000000
C    -4.910000000    -0.763000000     2.774000000
O    -5.198000000    -2.103000000     2.919000000
C    -5.625000000    -2.923000000     1.868000000
C    -6.947000000    -2.813000000     1.289000000
H    -7.599000000    -2.062000000     1.726000000
C    -7.336000000    -3.632000000     0.226000000
H    -8.342000000    -3.465000000    -0.152000000
C    -6.493000000    -4.523000000    -0.252000000
H    -6.760000000    -5.105000000    -1.130000000
C    -5.216000000    -4.644000000     0.197000000
C    -4.813000000    -3.880000000     1.341000000
H    -3.898000000    -4.123000000     1.875000000
C     1.265000000    -2.375000000     1.424000000
H     2.169000000    -2.514000000     2.011000000
C     1.227000000    -1.195000000     0.671000000
H     2.155000000    -0.653000000     0.509000000
C     0.028000000    -0.885000000     0.086000000
H    -0.084000000     0.008000000    -0.491000000
C    -1.147000000    -1.672000000     0.265000000
H    -2.012000000    -1.279000000    -0.263000000
C    -1.091000000    -2.878000000     0.951000000
H    -1.964000000    -3.510000000     1.095000000
C     0.091000000    -3.166000000     1.606000000
C     0.107000000    -4.320000000     2.595000000
O    -0.769000000    -5.161000000     2.683000000
O     1.019000000    -4.406000000     3.452000000
O    -3.138000000    -1.862000000     6.032000000
H    -2.444000000    -1.760000000     5.380000000
H    -2.882000000    -1.279000000     6.747000000
O     0.058000000    -7.632000000     2.718000000
H    -0.513000000    -8.229000000     2.234000000
H    -0.320000000    -6.765000000     2.569000000
O     1.983000000    -6.510000000     4.650000000
H     1.735000000    -5.688000000     4.226000000
H     1.224000000    -7.080000000     4.529000000
O     4.789000000    -7.324000000     3.872000000
H     3.940000000    -6.987000000     4.157000000
H     4.625000000    -7.681000000     2.999000000
O    -1.766000000    -8.838000000     5.494000000
H    -2.481000000    -9.374000000     5.838000000
H    -1.772000000    -9.008000000     4.552000000
O     2.345000000    -9.245000000     2.663000000
H     1.592000000    -8.657000000     2.608000000
H     2.254000000    -9.670000000     3.516000000
O    -2.080000000    -9.402000000     1.546000000
H    -2.955000000    -9.532000000     1.180000000
H    -1.495000000    -9.849000000     0.933000000
O     5.837000000    -4.207000000     5.110000000
H     4.914000000    -4.008000000     4.950000000
H     5.979000000    -5.049000000     4.679000000
O     1.070000000    -3.042000000     8.151000000
H     1.863000000    -2.588000000     8.435000000
H     1.390000000    -3.823000000     7.700000000
O    -4.416000000    -6.921000000     2.790000000
H    -4.331000000    -6.677000000     1.868000000
H    -4.181000000    -6.128000000     3.271000000
O     2.475000000    -5.066000000     6.921000000
H     2.784000000    -5.373000000     6.069000000
H     3.269000000    -4.797000000     7.382000000
O    -0.104000000    -9.758000000    -0.361000000
H     0.513000000   -10.241000000    -0.911000000
H     0.088000000    -8.837000000    -0.538000000
O    -4.128000000    -4.309000000     5.491000000
H    -3.305000000    -4.794000000     5.436000000
H    -3.865000000    -3.389000000     5.472000000
O    -0.482000000    -2.756000000     5.542000000
H    -0.240000000    -2.890000000     6.458000000
H    -0.132000000    -3.523000000     5.087000000
O    -0.169000000    -0.262000000     4.760000000
H    -0.189000000    -1.200000000     4.950000000
H    -0.140000000    -0.213000000     3.804000000
O     3.211000000    -3.501000000     4.549000000
H     3.003000000    -2.759000000     5.117000000
H     2.367000000    -3.767000000     4.184000000
O    -2.061000000    -5.823000000     4.691000000
H    -1.732000000    -6.689000000     4.929000000
H    -1.507000000    -5.549000000     3.959000000
O     3.207000000    -1.133000000     5.800000000
H     2.799000000    -0.315000000     5.516000000
H     3.810000000    -0.871000000     6.496000000
O     0.275000000    -6.639000000     7.842000000
H     0.999000000    -6.092000000     7.537000000
H     0.397000000    -6.692000000     8.790000000
