215
-1441.26375
C     4.519000000    -1.843000000     1.801000000
H     4.782000000    -0.833000000     2.105000000
C     4.124000000    -2.121000000     0.512000000
C     3.555000000    -3.435000000     0.294000000
H     3.143000000    -3.604000000    -0.698000000
C     4.010000000    -1.018000000    -0.548000000
O     4.961000000     0.001000000    -0.326000000
H     2.987000000    -0.615000000    -0.513000000
O     4.213000000    -1.530000000    -1.864000000
C     3.444000000    -1.072000000    -2.845000000
C     2.413000000    -1.878000000    -3.195000000
H     2.310000000    -2.858000000    -2.737000000
C     1.412000000    -1.470000000    -4.131000000
O     0.291000000    -2.274000000    -4.374000000
C     1.521000000    -0.204000000    -4.687000000
C     0.479000000     0.348000000    -5.656000000
H     0.967000000     1.174000000    -6.177000000
C    -0.769000000     0.954000000    -4.889000000
C    -0.739000000     2.245000000    -4.399000000
H     0.112000000     2.856000000    -4.691000000
H     0.153000000    -0.395000000    -6.387000000
C     2.575000000     0.589000000    -4.299000000
H     2.630000000     1.589000000    -4.722000000
C     3.592000000     0.209000000    -3.397000000
C     4.723000000     1.120000000    -2.933000000
H     4.895000000     1.794000000    -3.774000000
H     5.645000000     0.549000000    -2.801000000
C     4.293000000     1.860000000    -1.614000000
C     3.637000000     3.094000000    -1.668000000
H     3.549000000     3.572000000    -2.641000000
C     4.530000000     1.264000000    -0.397000000
C     4.185000000     1.894000000     0.833000000
H     4.248000000     1.346000000     1.769000000
C     3.486000000     3.067000000     0.729000000
O     2.934000000     3.535000000     1.877000000
C     1.564000000     3.449000000     2.283000000
C     1.360000000     3.184000000     3.812000000
C     0.153000000     3.454000000     4.466000000
H    -0.565000000     4.044000000     3.902000000
C     2.312000000     2.400000000     4.464000000
H     3.251000000     2.130000000     3.989000000
O     0.910000000     4.687000000     1.940000000
H     0.947000000     2.659000000     1.829000000
C     3.196000000     3.673000000    -0.482000000
C     2.533000000     5.006000000    -0.598000000
H     2.733000000     5.481000000    -1.560000000
H     2.834000000     5.643000000     0.236000000
C     1.037000000     4.796000000    -0.488000000
C     0.307000000     4.746000000    -1.688000000
H     0.729000000     4.748000000    -2.690000000
C     0.289000000     4.859000000     0.711000000
C    -1.086000000     4.527000000     0.711000000
H    -1.592000000     4.380000000     1.662000000
C    -1.730000000     4.263000000    -0.533000000
O    -2.934000000     3.705000000    -0.476000000
C    -3.221000000     2.399000000    -0.961000000
C    -4.094000000     1.541000000    -0.029000000
C    -3.979000000     1.744000000     1.366000000
H    -3.303000000     2.468000000     1.815000000
C    -4.954000000     0.543000000    -0.533000000
H    -5.088000000     0.365000000    -1.597000000
O    -3.738000000     2.394000000    -2.281000000
H    -2.335000000     1.748000000    -0.938000000
C    -1.069000000     4.465000000    -1.725000000
C    -1.729000000     4.238000000    -3.094000000
H    -1.332000000     4.979000000    -3.790000000
H    -2.781000000     4.529000000    -3.059000000
C    -1.772000000     2.775000000    -3.542000000
C    -2.834000000     1.944000000    -3.170000000
C    -2.819000000     0.628000000    -3.607000000
H    -3.649000000    -0.003000000    -3.300000000
C    -1.850000000     0.170000000    -4.547000000
O    -1.806000000    -1.183000000    -4.761000000
C    -1.015000000    -1.913000000    -3.782000000
H    -0.873000000    -1.285000000    -2.890000000
C    -1.703000000    -3.205000000    -3.301000000
C    -0.877000000    -4.323000000    -2.864000000
H     0.184000000    -4.118000000    -2.746000000
C    -3.083000000    -3.335000000    -3.320000000
H    -3.686000000    -2.543000000    -3.756000000
C    -3.681000000    -4.556000000    -2.850000000
O    -5.088000000    -4.739000000    -2.861000000
C    -2.846000000    -5.571000000    -2.423000000
H    -3.328000000    -6.462000000    -2.028000000
C    -1.476000000    -5.472000000    -2.336000000
O    -0.744000000    -6.497000000    -1.829000000
C     0.630000000    -6.445000000    -1.640000000
C     1.109000000    -5.984000000    -0.419000000
H     0.469000000    -5.611000000     0.377000000
C     1.436000000    -7.005000000    -2.596000000
H     0.988000000    -7.432000000    -3.490000000
C     2.798000000    -6.942000000    -2.383000000
H     3.492000000    -7.280000000    -3.147000000
C     3.334000000    -6.358000000    -1.203000000
H     4.381000000    -6.104000000    -1.058000000
C     2.464000000    -6.048000000    -0.163000000
O     2.941000000    -5.637000000     1.079000000
C     3.512000000    -4.335000000     1.279000000
C     4.029000000    -4.085000000     2.543000000
H     3.951000000    -4.783000000     3.373000000
C     4.430000000    -2.805000000     2.836000000
O     5.021000000    -2.535000000     4.088000000
C     5.096000000    -1.322000000     4.649000000
C     3.983000000    -0.718000000     5.180000000
H     3.014000000    -1.205000000     5.255000000
C     6.279000000    -0.601000000     4.523000000
H     7.061000000    -0.924000000     3.841000000
C     6.421000000     0.677000000     5.047000000
H     7.264000000     1.319000000     4.804000000
C     5.317000000     1.253000000     5.681000000
H     5.236000000     2.283000000     6.017000000
C     4.079000000     0.510000000     5.758000000
O     2.919000000     1.026000000     6.346000000
C     2.011000000     1.799000000     5.680000000
C     0.847000000     2.069000000     6.338000000
H     0.570000000     1.736000000     7.335000000
C    -0.018000000     2.985000000     5.785000000
O    -1.260000000     3.265000000     6.453000000
C    -2.489000000     3.289000000     5.882000000
C    -2.752000000     2.269000000     4.922000000
H    -2.012000000     1.506000000     4.694000000
C    -3.585000000     4.085000000     6.233000000
H    -3.388000000     4.863000000     6.966000000
C    -4.846000000     3.935000000     5.689000000
H    -5.560000000     4.709000000     5.957000000
C    -4.991000000     3.052000000     4.676000000
H    -5.971000000     2.904000000     4.229000000
C    -4.035000000     2.132000000     4.384000000
O    -4.398000000     0.983000000     3.646000000
C    -4.582000000     0.877000000     2.258000000
C    -5.290000000    -0.198000000     1.733000000
H    -5.699000000    -0.901000000     2.454000000
C    -5.549000000    -0.328000000     0.377000000
O    -6.454000000    -1.366000000     0.136000000
C    -6.594000000    -2.021000000    -1.037000000
C    -7.773000000    -1.912000000    -1.772000000
H    -8.417000000    -1.159000000    -1.325000000
C    -8.091000000    -2.689000000    -2.852000000
H    -9.044000000    -2.641000000    -3.373000000
C    -7.132000000    -3.583000000    -3.266000000
H    -7.365000000    -4.251000000    -4.091000000
C    -5.923000000    -3.723000000    -2.620000000
C    -5.605000000    -2.929000000    -1.496000000
H    -4.688000000    -3.112000000    -0.941000000
C     0.577000000    -0.934000000     2.761000000
H     1.298000000    -1.066000000     3.563000000
C     0.870000000    -0.126000000     1.670000000
H     1.823000000     0.397000000     1.650000000
C    -0.042000000     0.027000000     0.623000000
H     0.324000000     0.566000000    -0.224000000
C    -1.226000000    -0.735000000     0.610000000
H    -1.877000000    -0.635000000    -0.255000000
C    -1.520000000    -1.509000000     1.748000000
H    -2.447000000    -2.077000000     1.773000000
C    -0.612000000    -1.650000000     2.803000000
C    -0.981000000    -2.497000000     3.987000000
O    -1.962000000    -3.260000000     3.983000000
O    -0.141000000    -2.474000000     4.864000000
O    -2.611000000    -6.028000000     3.731000000
H    -2.982000000    -5.283000000     3.258000000
H    -1.955000000    -5.640000000     4.311000000
O    -2.507000000    -3.134000000     8.747000000
H    -1.617000000    -2.990000000     8.425000000
H    -3.033000000    -3.243000000     7.954000000
O    -3.047000000    -6.087000000     7.783000000
H    -2.471000000    -6.655000000     7.270000000
H    -3.286000000    -5.382000000     7.182000000
O     3.152000000    -8.242000000     3.390000000
H     2.332000000    -7.811000000     3.148000000
H     2.883000000    -8.980000000     3.937000000
O    -6.053000000    -5.804000000     5.741000000
H    -5.113000000    -5.690000000     5.598000000
H    -6.446000000    -5.649000000     4.882000000
O    -3.078000000    -8.776000000     4.380000000
H    -3.976000000    -8.747000000     4.711000000
H    -2.871000000    -7.866000000     4.169000000
O    -0.460000000    -0.211000000     9.348000000
H     0.269000000    -0.149000000     9.965000000
H    -0.178000000    -0.868000000     8.711000000
O    -1.877000000    -7.260000000     1.344000000
H    -2.430000000    -6.695000000     1.884000000
H    -2.494000000    -7.766000000     0.817000000
O     2.743000000    -2.082000000     9.264000000
H     2.707000000    -2.787000000     8.617000000
H     3.568000000    -1.632000000     9.082000000
O    -4.974000000    -4.939000000     1.091000000
H    -5.425000000    -4.769000000     0.264000000
H    -5.108000000    -5.873000000     1.249000000
O    -5.776000000    -1.453000000     5.951000000
H    -5.318000000    -0.640000000     6.165000000
H    -5.252000000    -1.846000000     5.253000000
O     0.274000000    -6.716000000     3.556000000
H    -0.490000000    -7.269000000     3.716000000
H     0.189000000    -6.447000000     2.641000000
O    -3.669000000    -4.006000000     6.054000000
H    -4.356000000    -3.605000000     5.521000000
H    -2.887000000    -3.970000000     5.504000000
O     0.194000000    -2.168000000     7.589000000
H     0.131000000    -2.241000000     6.637000000
H     0.988000000    -2.651000000     7.814000000
O     0.948000000    -4.931000000     5.425000000
H     0.531000000    -4.077000000     5.310000000
H     0.727000000    -5.415000000     4.629000000
O    -0.760000000    -6.881000000     6.674000000
H    -0.086000000    -7.560000000     6.644000000
H    -0.278000000    -6.061000000     6.571000000
O    -4.682000000    -2.912000000     3.819000000
H    -3.731000000    -2.822000000     3.879000000
H    -4.847000000    -3.099000000     2.895000000
O    -4.602000000    -4.629000000     9.973000000
H    -3.888000000    -4.342000000     9.403000000
H    -5.292000000    -3.980000000     9.837000000
O     2.045000000    -4.397000000     7.829000000
H     1.889000000    -4.769000000     6.961000000
H     1.583000000    -4.985000000     8.427000000
