215
-1472.96879
C     4.296000000    -1.592000000     1.719000000
H     4.585000000    -0.555000000     1.871000000
C     3.913000000    -1.844000000     0.410000000
C     3.378000000    -3.074000000     0.102000000
H     2.883000000    -3.194000000    -0.858000000
C     3.777000000    -0.748000000    -0.591000000
O     4.734000000     0.356000000    -0.336000000
H     2.742000000    -0.378000000    -0.565000000
O     4.082000000    -1.134000000    -1.959000000
C     3.324000000    -0.602000000    -2.960000000
C     2.396000000    -1.432000000    -3.512000000
H     2.288000000    -2.494000000    -3.304000000
C     1.445000000    -0.957000000    -4.390000000
O     0.412000000    -1.773000000    -4.799000000
C     1.440000000     0.378000000    -4.751000000
C     0.299000000     0.930000000    -5.655000000
H     0.736000000     1.822000000    -6.107000000
C    -0.898000000     1.405000000    -4.737000000
C    -0.945000000     2.724000000    -4.226000000
H    -0.243000000     3.434000000    -4.656000000
H     0.072000000     0.169000000    -6.405000000
C     2.393000000     1.245000000    -4.212000000
H     2.374000000     2.294000000    -4.498000000
C     3.396000000     0.709000000    -3.369000000
C     4.497000000     1.705000000    -2.862000000
H     4.542000000     2.549000000    -3.553000000
H     5.451000000     1.177000000    -2.805000000
C     4.093000000     2.281000000    -1.534000000
C     3.335000000     3.473000000    -1.488000000
H     3.177000000     4.087000000    -2.371000000
C     4.272000000     1.624000000    -0.380000000
C     3.959000000     2.131000000     0.855000000
H     3.962000000     1.647000000     1.828000000
C     3.272000000     3.378000000     0.903000000
O     2.848000000     3.944000000     2.181000000
C     1.486000000     3.643000000     2.535000000
C     1.322000000     3.193000000     4.050000000
C     0.056000000     3.358000000     4.656000000
H    -0.706000000     3.940000000     4.145000000
C     2.269000000     2.425000000     4.637000000
H     3.266000000     2.262000000     4.236000000
O     0.627000000     4.696000000     2.168000000
H     1.158000000     2.734000000     2.008000000
C     2.937000000     4.064000000    -0.253000000
C     2.063000000     5.257000000    -0.228000000
H     2.181000000     5.828000000    -1.152000000
H     2.404000000     5.977000000     0.518000000
C     0.577000000     4.937000000    -0.162000000
C    -0.107000000     4.900000000    -1.346000000
H     0.436000000     5.067000000    -2.273000000
C    -0.092000000     4.637000000     1.036000000
C    -1.441000000     4.278000000     1.096000000
H    -1.933000000     3.993000000     2.022000000
C    -2.126000000     4.219000000    -0.122000000
O    -3.336000000     3.471000000    -0.030000000
C    -3.347000000     2.227000000    -0.701000000
C    -4.021000000     1.142000000     0.143000000
C    -3.554000000     1.062000000     1.464000000
H    -2.707000000     1.608000000     1.870000000
C    -5.001000000     0.339000000    -0.326000000
H    -5.467000000     0.509000000    -1.293000000
O    -3.900000000     2.306000000    -2.059000000
H    -2.310000000     1.874000000    -0.806000000
C    -1.457000000     4.484000000    -1.319000000
C    -2.174000000     4.357000000    -2.655000000
H    -1.773000000     5.142000000    -3.300000000
H    -3.239000000     4.575000000    -2.544000000
C    -1.988000000     3.001000000    -3.314000000
C    -2.951000000     2.053000000    -2.993000000
C    -2.854000000     0.823000000    -3.544000000
H    -3.632000000     0.115000000    -3.269000000
C    -1.848000000     0.478000000    -4.362000000
O    -1.779000000    -0.828000000    -4.736000000
C    -0.836000000    -1.600000000    -3.979000000
H    -0.676000000    -1.015000000    -3.061000000
C    -1.350000000    -2.989000000    -3.596000000
C    -0.463000000    -4.051000000    -3.526000000
H     0.612000000    -3.922000000    -3.621000000
C    -2.734000000    -3.212000000    -3.358000000
H    -3.410000000    -2.370000000    -3.484000000
C    -3.202000000    -4.511000000    -3.023000000
O    -4.496000000    -4.838000000    -2.899000000
C    -2.294000000    -5.490000000    -2.711000000
H    -2.647000000    -6.461000000    -2.376000000
C    -0.893000000    -5.238000000    -2.965000000
O    -0.044000000    -6.342000000    -2.831000000
C     1.214000000    -6.396000000    -2.218000000
C     1.460000000    -5.631000000    -1.062000000
H     0.636000000    -5.071000000    -0.627000000
C     2.059000000    -7.414000000    -2.671000000
H     1.623000000    -8.018000000    -3.463000000
C     3.254000000    -7.563000000    -2.009000000
H     3.974000000    -8.342000000    -2.245000000
C     3.612000000    -6.604000000    -1.065000000
H     4.573000000    -6.622000000    -0.557000000
C     2.663000000    -5.757000000    -0.490000000
O     2.865000000    -5.296000000     0.805000000
C     3.311000000    -4.097000000     1.083000000
C     3.872000000    -3.889000000     2.310000000
H     3.697000000    -4.665000000     3.051000000
C     4.392000000    -2.659000000     2.679000000
O     4.963000000    -2.462000000     3.898000000
C     5.042000000    -1.235000000     4.405000000
C     3.954000000    -0.742000000     5.103000000
H     3.064000000    -1.343000000     5.273000000
C     6.216000000    -0.541000000     4.314000000
H     7.084000000    -0.950000000     3.803000000
C     6.388000000     0.736000000     4.869000000
H     7.356000000     1.228000000     4.808000000
C     5.319000000     1.217000000     5.638000000
H     5.421000000     2.113000000     6.244000000
C     4.098000000     0.551000000     5.703000000
O     3.007000000     1.038000000     6.499000000
C     2.019000000     1.839000000     5.912000000
C     0.794000000     2.071000000     6.519000000
H     0.521000000     1.578000000     7.449000000
C    -0.174000000     2.768000000     5.866000000
O    -1.484000000     2.954000000     6.424000000
C    -2.600000000     2.580000000     5.784000000
C    -2.553000000     1.473000000     4.909000000
H    -1.617000000     0.924000000     4.863000000
C    -3.840000000     3.300000000     5.868000000
H    -3.974000000     4.198000000     6.465000000
C    -5.000000000     2.905000000     5.227000000
H    -5.938000000     3.419000000     5.421000000
C    -4.892000000     1.776000000     4.415000000
H    -5.791000000     1.427000000     3.913000000
C    -3.712000000     1.034000000     4.323000000
O    -3.646000000    -0.103000000     3.548000000
C    -4.104000000     0.055000000     2.205000000
C    -5.101000000    -0.790000000     1.774000000
H    -5.573000000    -1.516000000     2.430000000
C    -5.439000000    -0.673000000     0.464000000
O    -6.447000000    -1.462000000    -0.028000000
C    -6.392000000    -2.174000000    -1.164000000
C    -7.605000000    -2.226000000    -1.863000000
H    -8.421000000    -1.574000000    -1.563000000
C    -7.753000000    -3.112000000    -2.915000000
H    -8.669000000    -3.271000000    -3.480000000
C    -6.636000000    -3.957000000    -3.262000000
H    -6.836000000    -4.721000000    -4.009000000
C    -5.477000000    -3.955000000    -2.524000000
C    -5.352000000    -3.110000000    -1.410000000
H    -4.385000000    -2.977000000    -0.932000000
C     0.179000000    -1.005000000     2.378000000
H     0.751000000    -1.107000000     3.296000000
C     0.686000000    -0.115000000     1.416000000
H     1.560000000     0.515000000     1.563000000
C     0.018000000     0.021000000     0.201000000
H     0.332000000     0.759000000    -0.553000000
C    -1.109000000    -0.713000000    -0.073000000
H    -1.693000000    -0.579000000    -0.980000000
C    -1.604000000    -1.596000000     0.966000000
H    -2.526000000    -2.149000000     0.806000000
C    -0.946000000    -1.793000000     2.194000000
C    -1.480000000    -2.755000000     3.263000000
O    -2.534000000    -3.341000000     3.117000000
O    -0.685000000    -3.043000000     4.169000000
O    -3.997000000    -7.096000000     7.058000000
H    -3.759000000    -6.395000000     6.451000000
H    -3.863000000    -6.716000000     7.927000000
O    -3.920000000    -6.453000000     3.744000000
H    -4.668000000    -5.940000000     3.438000000
H    -3.232000000    -5.805000000     3.895000000
O    -1.468000000    -5.543000000     7.929000000
H    -0.821000000    -6.217000000     7.723000000
H    -1.760000000    -5.222000000     7.075000000
O    -2.587000000    -8.404000000     4.948000000
H    -3.049000000    -8.255000000     5.773000000
H    -2.934000000    -7.738000000     4.355000000
O    -1.249000000    -1.550000000     8.656000000
H    -0.467000000    -1.697000000     9.188000000
H    -1.056000000    -1.977000000     7.822000000
O    -0.565000000    -6.854000000     1.080000000
H    -1.497000000    -6.859000000     0.859000000
H    -0.152000000    -7.369000000     0.388000000
O    -7.858000000    -4.107000000     1.242000000
H    -6.991000000    -4.488000000     1.382000000
H    -7.699000000    -3.355000000     0.671000000
O    -4.343000000    -1.019000000     7.769000000
H    -3.450000000    -0.676000000     7.761000000
H    -4.252000000    -1.916000000     8.092000000
O    -5.404000000    -5.622000000     0.042000000
H    -5.440000000    -5.846000000    -0.888000000
H    -5.572000000    -6.449000000     0.494000000
O    -4.414000000    -2.760000000     5.432000000
H    -4.721000000    -2.077000000     6.028000000
H    -3.836000000    -2.303000000     4.821000000
O     0.670000000    -8.830000000     4.100000000
H     0.056000000    -9.555000000     4.214000000
H     0.341000000    -8.355000000     3.337000000
O    -2.603000000    -4.645000000     5.694000000
H    -3.211000000    -3.906000000     5.683000000
H    -2.063000000    -4.523000000     4.913000000
O     0.287000000    -2.204000000     6.532000000
H    -0.341000000    -2.002000000     5.838000000
H     0.855000000    -2.875000000     6.154000000
O    -0.423000000    -5.801000000     3.744000000
H    -0.379000000    -4.855000000     3.603000000
H    -0.276000000    -6.180000000     2.878000000
O     0.050000000    -7.252000000     6.230000000
H     0.957000000    -7.154000000     5.939000000
H    -0.473000000    -7.030000000     5.460000000
O    -4.931000000    -4.069000000     2.233000000
H    -4.080000000    -3.734000000     2.517000000
H    -4.763000000    -4.444000000     1.368000000
O    -3.242000000    -9.314000000     2.163000000
H    -3.456000000   -10.003000000     2.793000000
H    -3.261000000    -8.506000000     2.677000000
O    -6.765000000    -3.919000000     4.280000000
H    -5.913000000    -3.763000000     4.687000000
H    -6.586000000    -3.921000000     3.340000000
O     1.615000000    -3.907000000     4.798000000
H     0.777000000    -3.540000000     4.516000000
H     1.457000000    -4.850000000     4.853000000
