215
-1459.04851
C     4.188000000    -2.137000000     1.194000000
H     4.209000000    -1.150000000     1.650000000
C     4.049000000    -2.305000000    -0.214000000
C     3.965000000    -3.626000000    -0.761000000
H     3.752000000    -3.680000000    -1.825000000
C     3.894000000    -1.030000000    -1.099000000
O     4.805000000    -0.021000000    -0.685000000
H     2.888000000    -0.629000000    -0.911000000
O     4.073000000    -1.299000000    -2.493000000
C     3.138000000    -0.698000000    -3.357000000
C     2.095000000    -1.523000000    -3.742000000
H     2.118000000    -2.575000000    -3.466000000
C     0.963000000    -1.009000000    -4.354000000
O    -0.131000000    -1.824000000    -4.539000000
C     0.952000000     0.326000000    -4.669000000
C    -0.273000000     0.986000000    -5.344000000
H    -0.012000000     1.935000000    -5.817000000
C    -1.340000000     1.334000000    -4.364000000
C    -1.244000000     2.597000000    -3.809000000
H    -0.489000000     3.323000000    -4.101000000
H    -0.685000000     0.411000000    -6.176000000
C     2.023000000     1.189000000    -4.335000000
H     1.956000000     2.264000000    -4.479000000
C     3.141000000     0.687000000    -3.646000000
C     4.246000000     1.582000000    -3.170000000
H     4.239000000     2.517000000    -3.734000000
H     5.233000000     1.120000000    -3.247000000
C     3.939000000     2.069000000    -1.750000000
C     3.328000000     3.293000000    -1.553000000
H     3.115000000     3.990000000    -2.359000000
C     4.301000000     1.302000000    -0.587000000
C     4.113000000     1.877000000     0.655000000
H     4.285000000     1.334000000     1.581000000
C     3.617000000     3.181000000     0.874000000
O     3.165000000     3.486000000     2.101000000
C     1.782000000     3.287000000     2.540000000
C     1.742000000     2.691000000     3.933000000
C     0.431000000     2.586000000     4.522000000
H    -0.446000000     3.019000000     4.048000000
C     2.816000000     2.031000000     4.444000000
H     3.812000000     2.005000000     4.008000000
O     0.945000000     4.436000000     2.343000000
H     1.417000000     2.475000000     1.894000000
C     3.177000000     3.882000000    -0.290000000
C     2.342000000     5.128000000    -0.176000000
H     2.419000000     5.888000000    -0.956000000
H     2.749000000     5.671000000     0.680000000
C     0.795000000     4.780000000    -0.084000000
C     0.054000000     4.768000000    -1.277000000
H     0.547000000     5.012000000    -2.215000000
C     0.229000000     4.477000000     1.184000000
C    -1.162000000     4.240000000     1.224000000
H    -1.688000000     3.859000000     2.095000000
C    -1.876000000     4.161000000     0.058000000
O    -3.175000000     3.735000000     0.264000000
C    -3.495000000     2.407000000    -0.221000000
C    -4.451000000     1.692000000     0.728000000
C    -4.503000000     2.083000000     2.047000000
H    -3.841000000     2.862000000     2.416000000
C    -5.203000000     0.600000000     0.427000000
H    -5.217000000     0.266000000    -0.607000000
O    -4.123000000     2.469000000    -1.466000000
H    -2.591000000     1.792000000    -0.336000000
C    -1.290000000     4.459000000    -1.169000000
C    -2.172000000     4.447000000    -2.413000000
H    -1.764000000     5.104000000    -3.184000000
H    -3.161000000     4.856000000    -2.195000000
C    -2.248000000     2.995000000    -2.922000000
C    -3.229000000     2.097000000    -2.463000000
C    -3.218000000     0.816000000    -2.957000000
H    -3.937000000     0.119000000    -2.534000000
C    -2.263000000     0.420000000    -3.866000000
O    -2.156000000    -0.907000000    -4.229000000
C    -1.183000000    -1.731000000    -3.610000000
H    -0.759000000    -1.212000000    -2.739000000
C    -1.711000000    -3.107000000    -3.268000000
C    -0.871000000    -4.198000000    -3.093000000
H     0.164000000    -4.074000000    -3.400000000
C    -3.030000000    -3.274000000    -2.748000000
H    -3.693000000    -2.412000000    -2.743000000
C    -3.464000000    -4.534000000    -2.280000000
O    -4.710000000    -4.697000000    -1.773000000
C    -2.656000000    -5.650000000    -2.301000000
H    -2.938000000    -6.641000000    -1.954000000
C    -1.338000000    -5.533000000    -2.732000000
O    -0.442000000    -6.637000000    -2.613000000
C     0.906000000    -6.573000000    -2.688000000
C     1.641000000    -6.498000000    -1.530000000
H     1.074000000    -6.339000000    -0.616000000
C     1.523000000    -6.581000000    -3.963000000
H     0.933000000    -6.782000000    -4.854000000
C     2.903000000    -6.233000000    -4.056000000
H     3.360000000    -6.182000000    -5.041000000
C     3.565000000    -6.052000000    -2.859000000
H     4.611000000    -5.761000000    -2.919000000
C     2.999000000    -6.230000000    -1.606000000
O     3.700000000    -5.997000000    -0.484000000
C     3.916000000    -4.716000000     0.027000000
C     3.990000000    -4.517000000     1.431000000
H     3.920000000    -5.420000000     2.032000000
C     4.112000000    -3.272000000     2.011000000
O     4.161000000    -3.133000000     3.393000000
C     4.733000000    -2.068000000     4.054000000
C     4.009000000    -1.261000000     4.987000000
H     3.023000000    -1.518000000     5.367000000
C     6.109000000    -1.721000000     3.830000000
H     6.640000000    -2.301000000     3.079000000
C     6.697000000    -0.556000000     4.297000000
H     7.606000000    -0.159000000     3.852000000
C     5.889000000     0.271000000     5.092000000
H     6.259000000     1.232000000     5.444000000
C     4.574000000    -0.080000000     5.391000000
O     3.742000000     0.816000000     6.221000000
C     2.639000000     1.371000000     5.637000000
C     1.406000000     1.262000000     6.255000000
H     1.322000000     0.610000000     7.121000000
C     0.257000000     1.815000000     5.665000000
O    -0.948000000     1.623000000     6.291000000
C    -2.063000000     2.458000000     6.001000000
C    -3.173000000     1.752000000     5.507000000
H    -3.007000000     0.680000000     5.430000000
C    -2.086000000     3.840000000     5.859000000
H    -1.129000000     4.311000000     6.067000000
C    -3.239000000     4.542000000     5.417000000
H    -3.191000000     5.617000000     5.262000000
C    -4.374000000     3.814000000     5.048000000
H    -5.236000000     4.326000000     4.629000000
C    -4.284000000     2.422000000     5.015000000
O    -5.311000000     1.745000000     4.405000000
C    -5.224000000     1.378000000     3.026000000
C    -5.904000000     0.298000000     2.716000000
H    -6.514000000    -0.292000000     3.396000000
C    -5.975000000    -0.061000000     1.345000000
O    -6.778000000    -1.131000000     1.024000000
C    -6.620000000    -1.814000000    -0.209000000
C    -7.458000000    -1.529000000    -1.323000000
H    -8.125000000    -0.674000000    -1.255000000
C    -7.388000000    -2.237000000    -2.546000000
H    -8.109000000    -2.120000000    -3.351000000
C    -6.397000000    -3.234000000    -2.638000000
H    -6.397000000    -3.746000000    -3.597000000
C    -5.580000000    -3.566000000    -1.586000000
C    -5.708000000    -2.904000000    -0.372000000
H    -5.028000000    -3.189000000     0.428000000
C     0.873000000    -1.655000000     2.063000000
H     1.526000000    -1.853000000     2.909000000
C     1.169000000    -0.511000000     1.266000000
H     2.000000000     0.183000000     1.366000000
C     0.297000000    -0.288000000     0.148000000
H     0.565000000     0.487000000    -0.519000000
C    -0.880000000    -0.953000000     0.083000000
H    -1.603000000    -0.634000000    -0.664000000
C    -1.121000000    -2.075000000     0.851000000
H    -2.036000000    -2.650000000     0.735000000
C    -0.237000000    -2.435000000     1.876000000
C    -0.493000000    -3.662000000     2.717000000
O    -1.343000000    -4.442000000     2.360000000
O     0.058000000    -3.783000000     3.788000000
O    -3.143000000    -6.784000000     7.400000000
H    -3.920000000    -6.226000000     7.433000000
H    -2.692000000    -6.520000000     6.598000000
O    -4.868000000    -4.717000000     4.152000000
H    -4.221000000    -4.055000000     4.394000000
H    -4.642000000    -5.479000000     4.684000000
O    -2.300000000    -7.929000000     2.179000000
H    -1.532000000    -7.564000000     1.739000000
H    -3.043000000    -7.475000000     1.780000000
O    -4.251000000    -1.561000000     6.711000000
H    -3.654000000    -1.963000000     6.080000000
H    -5.034000000    -2.112000000     6.685000000
O     0.368000000    -8.820000000     6.118000000
H     0.351000000    -9.642000000     6.607000000
H     0.366000000    -9.088000000     5.199000000
O     0.233000000    -6.718000000     7.801000000
H     0.233000000    -7.390000000     7.119000000
H    -0.388000000    -7.041000000     8.454000000
O     0.054000000    -9.526000000     3.597000000
H    -0.463000000    -9.467000000     2.793000000
H     0.478000000   -10.383000000     3.546000000
O     0.681000000    -9.507000000     0.469000000
H     0.507000000    -8.619000000     0.779000000
H    -0.148000000    -9.970000000     0.591000000
O     2.044000000    -5.707000000     3.953000000
H     1.521000000    -5.677000000     4.754000000
H     1.906000000    -4.852000000     3.545000000
O    -6.507000000    -6.354000000     0.955000000
H    -6.431000000    -7.211000000     0.534000000
H    -5.606000000    -6.034000000     1.008000000
O     4.393000000    -6.986000000     4.496000000
H     3.518000000    -6.696000000     4.239000000
H     4.506000000    -6.650000000     5.386000000
O    -2.481000000    -3.051000000     5.421000000
H    -1.951000000    -3.178000000     6.208000000
H    -1.867000000    -3.171000000     4.696000000
O     0.228000000    -6.793000000     1.990000000
H     1.097000000    -6.684000000     2.376000000
H    -0.298000000    -6.098000000     2.384000000
O    -2.275000000    -6.122000000     4.587000000
H    -2.143000000    -6.895000000     4.038000000
H    -1.677000000    -5.468000000     4.227000000
O    -0.674000000    -4.036000000     7.657000000
H    -0.983000000    -3.633000000     8.468000000
H    -0.636000000    -4.972000000     7.854000000
O     1.488000000    -3.763000000     5.965000000
H     0.947000000    -3.626000000     5.187000000
H     0.859000000    -3.910000000     6.671000000
O    -3.592000000    -5.636000000     1.495000000
H    -2.675000000    -5.366000000     1.441000000
H    -3.957000000    -5.104000000     2.202000000
O     3.847000000    -3.739000000     7.291000000
H     3.048000000    -3.897000000     6.787000000
H     4.549000000    -4.090000000     6.743000000
O    -3.712000000    -9.740000000     3.645000000
H    -4.455000000    -9.904000000     3.066000000
H    -3.295000000    -8.957000000     3.284000000
