215
-1430.99258
C     4.156000000    -1.901000000    -0.286000000
H     4.362000000    -0.989000000     0.268000000
C     3.584000000    -1.954000000    -1.519000000
C     3.183000000    -3.174000000    -2.054000000
H     2.761000000    -3.251000000    -3.053000000
C     3.221000000    -0.656000000    -2.256000000
O     4.266000000     0.352000000    -2.309000000
H     2.374000000    -0.246000000    -1.686000000
O     2.804000000    -0.851000000    -3.650000000
C     1.729000000    -0.193000000    -4.172000000
C     0.669000000    -1.031000000    -4.397000000
H     0.743000000    -2.093000000    -4.177000000
C    -0.601000000    -0.473000000    -4.655000000
O    -1.642000000    -1.384000000    -4.541000000
C    -0.740000000     0.899000000    -4.732000000
C    -2.120000000     1.518000000    -4.932000000
H    -1.908000000     2.410000000    -5.526000000
C    -2.850000000     1.781000000    -3.603000000
C    -2.621000000     2.987000000    -2.913000000
H    -2.174000000     3.832000000    -3.430000000
H    -2.751000000     0.945000000    -5.615000000
C     0.425000000     1.674000000    -4.728000000
H     0.222000000     2.729000000    -4.889000000
C     1.672000000     1.211000000    -4.355000000
C     2.828000000     2.127000000    -4.291000000
H     2.713000000     2.985000000    -4.956000000
H     3.737000000     1.610000000    -4.606000000
C     3.167000000     2.471000000    -2.849000000
C     2.461000000     3.585000000    -2.337000000
H     1.781000000     4.189000000    -2.933000000
C     3.947000000     1.663000000    -2.013000000
C     4.171000000     2.007000000    -0.700000000
H     4.644000000     1.275000000    -0.050000000
C     3.709000000     3.264000000    -0.241000000
O     3.848000000     3.593000000     1.097000000
C     2.762000000     3.109000000     1.948000000
C     3.244000000     2.568000000     3.331000000
C     2.394000000     2.465000000     4.420000000
H     1.417000000     2.934000000     4.332000000
C     4.456000000     1.937000000     3.467000000
H     5.104000000     1.963000000     2.595000000
O     1.888000000     4.201000000     2.108000000
H     2.221000000     2.324000000     1.400000000
C     2.844000000     4.012000000    -1.066000000
C     2.142000000     5.268000000    -0.517000000
H     1.998000000     6.022000000    -1.294000000
H     2.800000000     5.649000000     0.267000000
C     0.803000000     4.797000000     0.072000000
C    -0.340000000     4.899000000    -0.646000000
H    -0.370000000     5.229000000    -1.681000000
C     0.774000000     4.267000000     1.341000000
C    -0.478000000     3.827000000     1.878000000
H    -0.539000000     3.386000000     2.869000000
C    -1.659000000     4.024000000     1.168000000
O    -2.824000000     3.417000000     1.745000000
C    -3.347000000     2.147000000     1.218000000
C    -3.723000000     1.053000000     2.220000000
C    -2.834000000     0.856000000     3.268000000
H    -1.845000000     1.307000000     3.238000000
C    -4.901000000     0.255000000     2.025000000
H    -5.511000000     0.363000000     1.132000000
O    -4.370000000     2.590000000     0.212000000
H    -2.429000000     1.763000000     0.749000000
C    -1.620000000     4.559000000    -0.140000000
C    -2.923000000     4.625000000    -1.014000000
H    -2.926000000     5.446000000    -1.734000000
H    -3.750000000     5.003000000    -0.410000000
C    -3.246000000     3.287000000    -1.694000000
C    -3.916000000     2.286000000    -1.051000000
C    -4.083000000     0.998000000    -1.671000000
H    -4.651000000     0.274000000    -1.093000000
C    -3.580000000     0.766000000    -2.940000000
O    -3.544000000    -0.457000000    -3.545000000
C    -2.446000000    -1.337000000    -3.362000000
H    -1.789000000    -0.894000000    -2.599000000
C    -2.897000000    -2.686000000    -2.753000000
C    -2.131000000    -3.857000000    -3.018000000
H    -1.254000000    -3.843000000    -3.660000000
C    -4.061000000    -2.865000000    -2.005000000
H    -4.646000000    -1.995000000    -1.719000000
C    -4.426000000    -4.102000000    -1.530000000
O    -5.595000000    -4.345000000    -0.756000000
C    -3.715000000    -5.179000000    -1.783000000
H    -3.918000000    -6.111000000    -1.261000000
C    -2.520000000    -5.108000000    -2.500000000
O    -1.596000000    -6.171000000    -2.401000000
C    -0.266000000    -6.136000000    -2.930000000
C     0.806000000    -5.790000000    -2.102000000
H     0.571000000    -5.780000000    -1.041000000
C    -0.104000000    -6.226000000    -4.341000000
H    -0.927000000    -6.574000000    -4.960000000
C     1.210000000    -6.131000000    -4.850000000
H     1.313000000    -6.244000000    -5.926000000
C     2.318000000    -5.994000000    -4.025000000
H     3.337000000    -6.135000000    -4.376000000
C     2.089000000    -5.767000000    -2.654000000
O     3.283000000    -5.608000000    -1.886000000
C     3.593000000    -4.339000000    -1.387000000
C     4.218000000    -4.322000000    -0.194000000
H     4.509000000    -5.230000000     0.329000000
C     4.473000000    -3.059000000     0.384000000
O     4.954000000    -3.034000000     1.641000000
C     5.877000000    -2.049000000     1.906000000
C     5.668000000    -1.478000000     3.153000000
H     4.764000000    -1.786000000     3.671000000
C     7.039000000    -1.692000000     1.179000000
H     7.279000000    -2.192000000     0.244000000
C     7.827000000    -0.654000000     1.665000000
H     8.679000000    -0.377000000     1.049000000
C     7.583000000     0.067000000     2.795000000
H     8.137000000     0.971000000     3.033000000
C     6.408000000    -0.342000000     3.519000000
O     5.966000000     0.436000000     4.572000000
C     4.795000000     1.109000000     4.582000000
C     3.931000000     1.132000000     5.673000000
H     4.225000000     0.521000000     6.523000000
C     2.708000000     1.764000000     5.589000000
O     1.772000000     1.581000000     6.624000000
C     0.435000000     1.710000000     6.482000000
C    -0.337000000     0.640000000     6.006000000
H     0.112000000    -0.262000000     5.598000000
C    -0.242000000     2.868000000     6.891000000
H     0.279000000     3.586000000     7.518000000
C    -1.613000000     3.035000000     6.678000000
H    -2.145000000     3.882000000     7.104000000
C    -2.275000000     1.964000000     6.255000000
H    -3.347000000     1.921000000     6.082000000
C    -1.679000000     0.789000000     5.856000000
O    -2.419000000    -0.296000000     5.395000000
C    -3.194000000    -0.080000000     4.240000000
C    -4.357000000    -0.827000000     4.133000000
H    -4.623000000    -1.494000000     4.949000000
C    -5.233000000    -0.671000000     3.056000000
O    -6.322000000    -1.436000000     2.916000000
C    -6.721000000    -1.961000000     1.744000000
C    -7.679000000    -1.309000000     1.015000000
H    -8.259000000    -0.510000000     1.469000000
C    -7.994000000    -1.691000000    -0.254000000
H    -8.738000000    -1.091000000    -0.772000000
C    -7.249000000    -2.733000000    -0.844000000
H    -7.501000000    -3.034000000    -1.858000000
C    -6.217000000    -3.305000000    -0.143000000
C    -5.929000000    -2.943000000     1.174000000
H    -5.061000000    -3.273000000     1.739000000
C     0.692000000    -1.850000000     2.220000000
H     1.450000000    -2.459000000     2.706000000
C     1.035000000    -0.802000000     1.342000000
H     2.065000000    -0.497000000     1.175000000
C     0.011000000    -0.171000000     0.627000000
H     0.143000000     0.814000000     0.086000000
C    -1.261000000    -0.628000000     0.778000000
H    -1.996000000    -0.136000000     0.146000000
C    -1.615000000    -1.662000000     1.611000000
H    -2.676000000    -1.896000000     1.606000000
C    -0.609000000    -2.311000000     2.379000000
C    -0.950000000    -3.437000000     3.255000000
O    -2.083000000    -3.888000000     3.157000000
O    -0.100000000    -3.992000000     3.954000000
O    -5.015000000    -6.786000000     2.986000000
H    -4.492000000    -6.007000000     3.174000000
H    -4.719000000    -7.434000000     3.627000000
O    -1.844000000    -1.843000000     8.573000000
H    -2.257000000    -2.096000000     7.747000000
H    -2.429000000    -2.188000000     9.248000000
O    -3.865000000    -8.236000000     5.228000000
H    -4.185000000    -8.977000000     5.742000000
H    -4.320000000    -7.476000000     5.592000000
O     0.876000000    -2.560000000     8.369000000
H     0.881000000    -3.116000000     7.590000000
H     0.008000000    -2.158000000     8.371000000
O    -0.157000000    -9.459000000     4.594000000
H     0.725000000    -9.585000000     4.244000000
H    -0.351000000    -8.536000000     4.428000000
O     1.799000000    -7.440000000     0.708000000
H     2.096000000    -6.609000000     1.079000000
H     0.895000000    -7.528000000     1.011000000
O     2.943000000    -6.603000000     4.555000000
H     2.195000000    -6.202000000     4.112000000
H     3.706000000    -6.154000000     4.191000000
O    -6.758000000    -3.944000000     5.235000000
H    -5.830000000    -4.127000000     5.085000000
H    -6.765000000    -3.333000000     5.972000000
O    -1.698000000    -4.413000000     6.674000000
H    -1.285000000    -4.177000000     5.843000000
H    -1.076000000    -5.010000000     7.090000000
O     4.013000000    -3.480000000     7.213000000
H     3.152000000    -3.811000000     6.956000000
H     4.054000000    -3.626000000     8.158000000
O     2.266000000    -9.075000000     3.210000000
H     2.172000000    -8.755000000     2.313000000
H     2.608000000    -8.325000000     3.697000000
O    -4.110000000    -4.278000000     4.736000000
H    -3.418000000    -3.975000000     4.148000000
H    -3.658000000    -4.471000000     5.557000000
O     1.494000000    -5.221000000     2.350000000
H     2.143000000    -4.558000000     2.113000000
H     0.936000000    -4.789000000     2.997000000
O    -2.263000000    -6.153000000     0.808000000
H    -2.660000000    -5.533000000     0.196000000
H    -2.320000000    -5.719000000     1.659000000
O    -2.359000000    -8.652000000    -0.268000000
H    -2.935000000    -8.171000000    -0.863000000
H    -2.193000000    -8.041000000     0.450000000
O     1.313000000    -3.968000000     6.140000000
H     1.112000000    -4.860000000     6.425000000
H     0.848000000    -3.872000000     5.309000000
O    -4.499000000    -0.266000000     7.445000000
H    -3.939000000    -0.559000000     6.726000000
H    -4.959000000     0.496000000     7.094000000
O    -0.949000000    -6.953000000     4.188000000
H    -1.891000000    -7.052000000     4.326000000
H    -0.797000000    -6.010000000     4.240000000
O     0.273000000    -6.369000000     7.050000000
H     0.805000000    -6.909000000     7.634000000
H    -0.194000000    -6.999000000     6.501000000
