215
-1450.45114
C     5.031000000    -1.908000000    -0.975000000
H     5.591000000    -0.991000000    -0.805000000
C     3.945000000    -2.041000000    -1.818000000
C     3.354000000    -3.272000000    -2.039000000
H     2.530000000    -3.445000000    -2.727000000
C     3.347000000    -0.720000000    -2.397000000
O     4.396000000     0.261000000    -2.573000000
H     2.516000000    -0.326000000    -1.794000000
O     2.745000000    -0.991000000    -3.688000000
C     1.543000000    -0.468000000    -4.048000000
C     0.429000000    -1.349000000    -4.165000000
H     0.481000000    -2.388000000    -3.849000000
C    -0.815000000    -0.842000000    -4.541000000
O    -1.940000000    -1.622000000    -4.498000000
C    -0.979000000     0.503000000    -4.893000000
C    -2.383000000     1.124000000    -5.124000000
H    -2.366000000     2.041000000    -5.716000000
C    -3.022000000     1.471000000    -3.823000000
C    -2.621000000     2.659000000    -3.197000000
H    -2.001000000     3.331000000    -3.785000000
H    -3.010000000     0.408000000    -5.660000000
C     0.154000000     1.356000000    -4.884000000
H    -0.051000000     2.410000000    -5.054000000
C     1.390000000     0.890000000    -4.398000000
C     2.670000000     1.795000000    -4.430000000
H     2.487000000     2.501000000    -5.243000000
H     3.542000000     1.201000000    -4.710000000
C     3.078000000     2.299000000    -3.088000000
C     2.534000000     3.468000000    -2.564000000
H     1.975000000     4.058000000    -3.286000000
C     3.905000000     1.524000000    -2.267000000
C     4.193000000     2.030000000    -0.997000000
H     4.761000000     1.404000000    -0.313000000
C     3.731000000     3.250000000    -0.530000000
O     3.711000000     3.485000000     0.861000000
C     2.517000000     3.117000000     1.677000000
C     2.862000000     2.402000000     3.005000000
C     2.166000000     2.709000000     4.131000000
H     1.448000000     3.519000000     4.230000000
C     3.629000000     1.254000000     3.005000000
H     4.262000000     1.041000000     2.148000000
O     1.778000000     4.325000000     1.926000000
H     1.796000000     2.495000000     1.126000000
C     2.877000000     3.999000000    -1.329000000
C     2.157000000     5.213000000    -0.839000000
H     2.022000000     5.937000000    -1.645000000
H     2.864000000     5.658000000    -0.136000000
C     0.774000000     4.897000000    -0.194000000
C    -0.398000000     4.909000000    -1.043000000
H    -0.226000000     5.091000000    -2.100000000
C     0.649000000     4.603000000     1.172000000
C    -0.578000000     4.286000000     1.704000000
H    -0.666000000     4.033000000     2.757000000
C    -1.736000000     4.277000000     0.923000000
O    -2.839000000     3.708000000     1.459000000
C    -3.133000000     2.321000000     1.085000000
C    -3.508000000     1.435000000     2.301000000
C    -3.092000000     1.793000000     3.574000000
H    -2.341000000     2.572000000     3.672000000
C    -4.366000000     0.357000000     2.153000000
H    -4.562000000     0.062000000     1.125000000
O    -4.240000000     2.308000000     0.118000000
H    -2.222000000     1.964000000     0.581000000
C    -1.611000000     4.561000000    -0.438000000
C    -2.775000000     4.299000000    -1.392000000
H    -2.632000000     4.888000000    -2.300000000
H    -3.672000000     4.729000000    -0.941000000
C    -3.052000000     2.888000000    -1.894000000
C    -3.867000000     2.034000000    -1.229000000
C    -4.233000000     0.811000000    -1.818000000
H    -4.781000000     0.035000000    -1.288000000
C    -3.830000000     0.559000000    -3.146000000
O    -3.978000000    -0.707000000    -3.566000000
C    -2.776000000    -1.574000000    -3.342000000
H    -2.182000000    -1.097000000    -2.548000000
C    -3.031000000    -2.989000000    -2.781000000
C    -2.140000000    -4.018000000    -3.003000000
H    -1.320000000    -3.991000000    -3.716000000
C    -4.186000000    -3.213000000    -2.065000000
H    -4.854000000    -2.389000000    -1.827000000
C    -4.390000000    -4.400000000    -1.394000000
O    -5.489000000    -4.561000000    -0.589000000
C    -3.440000000    -5.400000000    -1.502000000
H    -3.654000000    -6.238000000    -0.844000000
C    -2.326000000    -5.237000000    -2.271000000
O    -1.352000000    -6.251000000    -2.147000000
C    -0.052000000    -6.280000000    -2.653000000
C     0.963000000    -5.776000000    -1.920000000
H     0.718000000    -5.368000000    -0.943000000
C     0.129000000    -7.017000000    -3.830000000
H    -0.715000000    -7.526000000    -4.288000000
C     1.471000000    -7.303000000    -4.234000000
H     1.672000000    -7.821000000    -5.168000000
C     2.519000000    -6.720000000    -3.544000000
H     3.532000000    -6.849000000    -3.917000000
C     2.252000000    -5.998000000    -2.322000000
O     3.339000000    -5.592000000    -1.428000000
C     3.914000000    -4.365000000    -1.312000000
C     5.066000000    -4.239000000    -0.525000000
H     5.418000000    -5.113000000     0.017000000
C     5.581000000    -2.991000000    -0.389000000
O     6.693000000    -2.773000000     0.326000000
C     6.655000000    -1.870000000     1.455000000
C     5.538000000    -1.841000000     2.297000000
H     4.744000000    -2.564000000     2.125000000
C     7.760000000    -1.122000000     1.758000000
H     8.649000000    -1.127000000     1.131000000
C     7.754000000    -0.319000000     2.921000000
H     8.681000000     0.205000000     3.141000000
C     6.611000000    -0.214000000     3.750000000
H     6.616000000     0.454000000     4.607000000
C     5.496000000    -0.972000000     3.436000000
O     4.329000000    -0.735000000     4.104000000
C     3.700000000     0.467000000     4.101000000
C     3.058000000     0.812000000     5.299000000
H     3.034000000     0.065000000     6.088000000
C     2.237000000     1.902000000     5.250000000
O     1.544000000     2.252000000     6.433000000
C     0.267000000     2.740000000     6.460000000
C    -0.718000000     1.844000000     6.214000000
H    -0.414000000     0.823000000     5.997000000
C    -0.215000000     4.057000000     6.921000000
H     0.484000000     4.844000000     7.190000000
C    -1.580000000     4.412000000     7.048000000
H    -1.878000000     5.392000000     7.413000000
C    -2.507000000     3.426000000     6.769000000
H    -3.533000000     3.726000000     6.970000000
C    -2.082000000     2.150000000     6.335000000
O    -2.980000000     1.189000000     5.976000000
C    -3.460000000     0.961000000     4.692000000
C    -4.340000000    -0.065000000     4.567000000
H    -4.455000000    -0.802000000     5.358000000
C    -4.775000000    -0.359000000     3.230000000
O    -5.536000000    -1.483000000     3.125000000
C    -6.029000000    -1.926000000     1.935000000
C    -7.201000000    -1.348000000     1.483000000
H    -7.695000000    -0.571000000     2.061000000
C    -7.725000000    -1.712000000     0.202000000
H    -8.642000000    -1.265000000    -0.176000000
C    -7.234000000    -2.827000000    -0.485000000
H    -7.729000000    -3.179000000    -1.386000000
C    -6.094000000    -3.444000000     0.071000000
C    -5.466000000    -2.960000000     1.215000000
H    -4.526000000    -3.372000000     1.573000000
C     1.912000000    -1.994000000     1.231000000
H     2.853000000    -2.003000000     1.774000000
C     1.577000000    -0.754000000     0.615000000
H     2.253000000     0.092000000     0.714000000
C     0.381000000    -0.594000000    -0.076000000
H     0.085000000     0.446000000    -0.296000000
C    -0.544000000    -1.595000000    -0.138000000
H    -1.495000000    -1.373000000    -0.617000000
C    -0.272000000    -2.848000000     0.411000000
H    -0.989000000    -3.658000000     0.306000000
C     1.002000000    -3.009000000     1.029000000
C     1.354000000    -4.365000000     1.596000000
O     0.693000000    -5.336000000     1.378000000
O     2.249000000    -4.507000000     2.419000000
O    -3.122000000    -4.045000000     4.269000000
H    -3.165000000    -3.786000000     5.189000000
H    -2.209000000    -4.300000000     4.134000000
O    -0.555000000    -5.044000000     3.931000000
H     0.067000000    -4.872000000     4.638000000
H    -0.006000000    -5.219000000     3.166000000
O    -2.679000000    -8.708000000     0.274000000
H    -1.761000000    -8.559000000     0.048000000
H    -2.913000000    -7.964000000     0.828000000
O     0.599000000    -2.274000000     6.184000000
H     1.149000000    -3.005000000     5.902000000
H     0.723000000    -1.607000000     5.508000000
O     1.979000000    -9.797000000    -1.635000000
H     1.743000000    -9.413000000    -0.790000000
H     1.216000000   -10.320000000    -1.882000000
O     7.733000000    -5.260000000     1.526000000
H     6.785000000    -5.283000000     1.653000000
H     8.011000000    -6.170000000     1.630000000
O     1.034000000   -10.231000000     1.157000000
H     0.226000000    -9.720000000     1.111000000
H     1.467000000    -9.923000000     1.953000000
O    -1.781000000    -6.862000000     5.578000000
H    -1.566000000    -6.427000000     4.753000000
H    -1.940000000    -7.774000000     5.333000000
O     4.647000000    -8.440000000    -1.219000000
H     4.560000000    -7.488000000    -1.272000000
H     3.811000000    -8.776000000    -1.544000000
O     3.706000000    -6.090000000     6.306000000
H     4.338000000    -5.372000000     6.352000000
H     4.211000000    -6.832000000     5.972000000
O    -1.492000000    -8.783000000     3.498000000
H    -1.522000000    -9.704000000     3.240000000
H    -2.149000000    -8.358000000     2.948000000
O     4.654000000    -7.873000000     4.343000000
H     3.746000000    -7.824000000     4.043000000
H     5.105000000    -7.182000000     3.857000000
O     0.448000000    -0.652000000     3.651000000
H    -0.402000000    -0.823000000     3.244000000
H     1.086000000    -0.869000000     2.971000000
O    -2.981000000    -6.788000000     2.229000000
H    -2.725000000    -5.892000000     2.450000000
H    -3.865000000    -6.879000000     2.584000000
O     4.792000000    -5.167000000     2.862000000
H     4.948000000    -4.804000000     3.734000000
H     3.903000000    -4.889000000     2.642000000
O    -0.072000000    -7.932000000     0.143000000
H    -0.465000000    -7.364000000    -0.520000000
H     0.251000000    -7.329000000     0.813000000
O     1.932000000   -10.109000000     3.877000000
H     1.091000000   -10.168000000     4.329000000
H     1.944000000    -9.226000000     3.507000000
O     1.797000000    -4.568000000     5.250000000
H     2.082000000    -4.388000000     4.354000000
H     2.368000000    -5.277000000     5.546000000
O     2.209000000    -7.353000000     3.103000000
H     1.372000000    -7.112000000     3.500000000
H     2.341000000    -6.707000000     2.410000000
