215
-1451.06271
C     4.271000000    -2.021000000    -0.665000000
H     4.651000000    -1.115000000    -0.199000000
C     3.589000000    -2.039000000    -1.906000000
C     3.199000000    -3.319000000    -2.461000000
H     2.679000000    -3.422000000    -3.410000000
C     3.256000000    -0.755000000    -2.622000000
O     4.278000000     0.290000000    -2.439000000
H     2.460000000    -0.305000000    -2.012000000
O     2.786000000    -0.924000000    -3.964000000
C     1.582000000    -0.424000000    -4.343000000
C     0.491000000    -1.337000000    -4.341000000
H     0.736000000    -2.386000000    -4.194000000
C    -0.821000000    -0.826000000    -4.584000000
O    -1.911000000    -1.669000000    -4.337000000
C    -0.973000000     0.528000000    -4.773000000
C    -2.293000000     1.259000000    -4.974000000
H    -2.169000000     2.135000000    -5.613000000
C    -3.013000000     1.627000000    -3.676000000
C    -2.961000000     2.916000000    -3.167000000
H    -2.449000000     3.679000000    -3.749000000
H    -2.908000000     0.506000000    -5.471000000
C     0.158000000     1.401000000    -4.759000000
H     0.023000000     2.475000000    -4.857000000
C     1.421000000     0.929000000    -4.565000000
C     2.597000000     1.853000000    -4.381000000
H     2.363000000     2.808000000    -4.855000000
H     3.439000000     1.475000000    -4.965000000
C     2.970000000     2.266000000    -2.960000000
C     2.550000000     3.551000000    -2.621000000
H     1.866000000     4.070000000    -3.288000000
C     3.859000000     1.583000000    -2.136000000
C     4.079000000     2.078000000    -0.846000000
H     4.649000000     1.461000000    -0.156000000
C     3.457000000     3.275000000    -0.436000000
O     3.612000000     3.532000000     0.872000000
C     2.577000000     3.286000000     1.728000000
C     3.091000000     2.788000000     3.129000000
C     2.199000000     2.753000000     4.221000000
H     1.232000000     3.243000000     4.136000000
C     4.305000000     2.086000000     3.163000000
H     4.936000000     2.026000000     2.280000000
O     1.886000000     4.535000000     1.904000000
H     1.870000000     2.558000000     1.304000000
C     2.727000000     4.042000000    -1.330000000
C     2.077000000     5.382000000    -0.926000000
H     1.992000000     6.034000000    -1.797000000
H     2.740000000     5.909000000    -0.237000000
C     0.725000000     5.069000000    -0.177000000
C    -0.376000000     4.913000000    -1.006000000
H    -0.275000000     5.149000000    -2.063000000
C     0.697000000     4.738000000     1.202000000
C    -0.478000000     4.194000000     1.726000000
H    -0.519000000     3.946000000     2.784000000
C    -1.617000000     4.019000000     0.883000000
O    -2.743000000     3.490000000     1.435000000
C    -3.068000000     2.120000000     1.144000000
C    -3.277000000     1.278000000     2.344000000
C    -2.769000000     1.623000000     3.604000000
H    -2.309000000     2.600000000     3.728000000
C    -3.872000000     0.034000000     2.171000000
H    -4.267000000    -0.327000000     1.224000000
O    -4.170000000     2.114000000     0.284000000
H    -2.275000000     1.741000000     0.484000000
C    -1.584000000     4.420000000    -0.461000000
C    -2.845000000     4.391000000    -1.251000000
H    -2.818000000     5.183000000    -2.002000000
H    -3.683000000     4.747000000    -0.648000000
C    -3.311000000     3.055000000    -1.855000000
C    -3.859000000     2.013000000    -1.056000000
C    -4.045000000     0.747000000    -1.647000000
H    -4.569000000    -0.006000000    -1.064000000
C    -3.658000000     0.641000000    -2.920000000
O    -3.795000000    -0.634000000    -3.439000000
C    -2.674000000    -1.539000000    -3.151000000
H    -2.054000000    -1.092000000    -2.360000000
C    -3.091000000    -2.951000000    -2.680000000
C    -2.153000000    -3.954000000    -2.640000000
H    -1.190000000    -3.684000000    -3.066000000
C    -4.265000000    -3.066000000    -1.929000000
H    -4.986000000    -2.259000000    -1.835000000
C    -4.534000000    -4.398000000    -1.419000000
O    -5.724000000    -4.644000000    -0.677000000
C    -3.662000000    -5.425000000    -1.493000000
H    -3.933000000    -6.431000000    -1.182000000
C    -2.396000000    -5.222000000    -2.112000000
O    -1.503000000    -6.263000000    -1.913000000
C    -0.322000000    -6.406000000    -2.643000000
C     0.920000000    -5.982000000    -2.168000000
H     0.879000000    -5.569000000    -1.163000000
C    -0.403000000    -7.245000000    -3.755000000
H    -1.370000000    -7.591000000    -4.111000000
C     0.731000000    -7.611000000    -4.459000000
H     0.638000000    -8.264000000    -5.324000000
C     1.974000000    -7.008000000    -4.015000000
H     2.834000000    -7.290000000    -4.619000000
C     2.070000000    -6.199000000    -2.892000000
O     3.256000000    -5.767000000    -2.344000000
C     3.509000000    -4.521000000    -1.708000000
C     4.246000000    -4.445000000    -0.527000000
H     4.464000000    -5.392000000    -0.040000000
C     4.647000000    -3.191000000    -0.025000000
O     5.448000000    -3.156000000     1.093000000
C     6.037000000    -2.014000000     1.598000000
C     5.555000000    -1.369000000     2.774000000
H     4.654000000    -1.762000000     3.237000000
C     7.071000000    -1.452000000     0.820000000
H     7.548000000    -2.007000000     0.016000000
C     7.602000000    -0.218000000     1.225000000
H     8.378000000     0.225000000     0.606000000
C     7.139000000     0.345000000     2.406000000
H     7.621000000     1.256000000     2.751000000
C     6.143000000    -0.197000000     3.196000000
O     5.665000000     0.442000000     4.343000000
C     4.585000000     1.314000000     4.293000000
C     3.851000000     1.541000000     5.452000000
H     4.228000000     1.155000000     6.396000000
C     2.638000000     2.230000000     5.418000000
O     1.916000000     2.360000000     6.613000000
C     0.640000000     2.679000000     6.687000000
C    -0.306000000     1.706000000     6.316000000
H    -0.078000000     0.706000000     5.957000000
C     0.200000000     3.951000000     7.055000000
H     0.944000000     4.722000000     7.245000000
C    -1.158000000     4.304000000     7.108000000
H    -1.473000000     5.291000000     7.438000000
C    -2.085000000     3.322000000     6.761000000
H    -3.137000000     3.565000000     6.885000000
C    -1.628000000     2.036000000     6.346000000
O    -2.599000000     1.150000000     5.955000000
C    -3.066000000     0.815000000     4.687000000
C    -3.828000000    -0.331000000     4.525000000
H    -4.186000000    -0.833000000     5.420000000
C    -4.227000000    -0.755000000     3.235000000
O    -5.068000000    -1.859000000     3.125000000
C    -5.823000000    -2.155000000     2.043000000
C    -7.181000000    -1.793000000     2.042000000
H    -7.638000000    -1.282000000     2.885000000
C    -8.007000000    -2.394000000     1.151000000
H    -9.083000000    -2.241000000     1.144000000
C    -7.537000000    -3.191000000     0.064000000
H    -8.208000000    -3.584000000    -0.696000000
C    -6.179000000    -3.588000000     0.163000000
C    -5.344000000    -3.125000000     1.162000000
H    -4.317000000    -3.476000000     1.224000000
C     1.969000000    -1.975000000     1.654000000
H     2.611000000    -1.834000000     2.520000000
C     1.702000000    -0.834000000     0.912000000
H     2.072000000     0.153000000     1.177000000
C     0.757000000    -0.837000000    -0.115000000
H     0.607000000     0.114000000    -0.493000000
C     0.203000000    -2.063000000    -0.479000000
H    -0.512000000    -2.133000000    -1.295000000
C     0.524000000    -3.241000000     0.215000000
H    -0.080000000    -4.125000000     0.030000000
C     1.287000000    -3.141000000     1.368000000
C     1.462000000    -4.289000000     2.314000000
O     0.750000000    -5.261000000     2.216000000
O     2.458000000    -4.346000000     2.975000000
O    -3.789000000    -4.785000000     3.808000000
H    -3.902000000    -4.179000000     4.540000000
H    -2.879000000    -4.665000000     3.537000000
O    -1.038000000    -4.806000000     4.165000000
H    -0.525000000    -4.982000000     3.376000000
H    -0.802000000    -5.513000000     4.766000000
O    -0.405000000    -8.811000000     0.254000000
H     0.414000000    -8.366000000     0.469000000
H    -0.730000000    -8.354000000    -0.521000000
O     1.714000000    -1.689000000     6.236000000
H     2.265000000    -2.328000000     5.784000000
H     0.952000000    -1.584000000     5.666000000
O    -2.251000000    -5.958000000     6.478000000
H    -1.949000000    -5.055000000     6.378000000
H    -3.105000000    -5.974000000     6.046000000
O     5.303000000    -2.601000000     6.715000000
H     5.776000000    -2.879000000     5.931000000
H     4.395000000    -2.853000000     6.549000000
O     4.112000000    -8.532000000    -1.546000000
H     3.876000000    -7.605000000    -1.577000000
H     3.461000000    -8.963000000    -2.100000000
O     4.437000000    -5.915000000     7.798000000
H     4.054000000    -5.093000000     8.105000000
H     4.515000000    -5.804000000     6.850000000
O     6.724000000    -5.886000000     2.644000000
H     6.418000000    -5.048000000     2.990000000
H     7.525000000    -6.070000000     3.135000000
O    -0.787000000    -8.211000000     2.934000000
H    -0.635000000    -8.467000000     2.025000000
H    -1.502000000    -7.576000000     2.888000000
O    -0.033000000    -3.555000000     7.386000000
H     0.647000000    -2.889000000     7.279000000
H     0.207000000    -4.015000000     8.190000000
O     3.569000000    -7.510000000     5.387000000
H     2.688000000    -7.148000000     5.291000000
H     4.028000000    -7.235000000     4.593000000
O    -0.656000000    -1.994000000     4.797000000
H    -0.885000000    -2.918000000     4.694000000
H    -1.278000000    -1.529000000     4.239000000
O    -3.455000000    -7.151000000     1.932000000
H    -3.690000000    -6.255000000     2.174000000
H    -4.164000000    -7.437000000     1.355000000
O     3.967000000    -6.774000000     2.841000000
H     4.840000000    -6.668000000     2.464000000
H     3.510000000    -5.963000000     2.616000000
O     1.806000000    -7.323000000     1.143000000
H     1.364000000    -6.654000000     1.665000000
H     2.615000000    -7.504000000     1.621000000
O     3.070000000    -4.329000000     5.828000000
H     2.957000000    -4.186000000     4.888000000
H     2.359000000    -4.923000000     6.067000000
O     0.965000000    -6.803000000     4.562000000
H     0.412000000    -7.414000000     4.075000000
H     1.327000000    -6.222000000     3.893000000
O     0.346000000    -6.547000000     7.254000000
H    -0.606000000    -6.634000000     7.223000000
H     0.623000000    -6.604000000     6.340000000
