215
-1439.03059
C     3.799000000    -2.410000000     0.012000000
H     4.130000000    -1.454000000     0.411000000
C     3.280000000    -2.403000000    -1.271000000
C     2.689000000    -3.514000000    -1.830000000
H     2.288000000    -3.614000000    -2.835000000
C     3.243000000    -1.172000000    -2.153000000
O     4.362000000    -0.324000000    -1.916000000
H     2.439000000    -0.578000000    -1.693000000
O     3.165000000    -1.300000000    -3.609000000
C     2.212000000    -0.624000000    -4.285000000
C     1.057000000    -1.282000000    -4.474000000
H     1.013000000    -2.360000000    -4.345000000
C    -0.115000000    -0.547000000    -4.673000000
O    -1.332000000    -1.217000000    -4.499000000
C    -0.108000000     0.854000000    -4.768000000
C    -1.335000000     1.702000000    -5.087000000
H    -1.200000000     2.569000000    -5.736000000
C    -2.151000000     2.076000000    -3.833000000
C    -1.974000000     3.289000000    -3.139000000
H    -1.220000000     3.994000000    -3.478000000
H    -2.052000000     1.100000000    -5.650000000
C     1.122000000     1.537000000    -4.728000000
H     1.073000000     2.621000000    -4.802000000
C     2.222000000     0.791000000    -4.337000000
C     3.568000000     1.466000000    -4.009000000
H     3.709000000     2.337000000    -4.652000000
H     4.311000000     0.760000000    -4.386000000
C     3.716000000     1.918000000    -2.619000000
C     3.220000000     3.141000000    -2.152000000
H     2.930000000     3.775000000    -2.986000000
C     4.182000000     1.022000000    -1.611000000
C     4.300000000     1.460000000    -0.318000000
H     4.644000000     0.744000000     0.424000000
C     3.861000000     2.675000000     0.063000000
O     3.912000000     2.910000000     1.438000000
C     2.619000000     2.752000000     2.078000000
C     2.927000000     2.081000000     3.411000000
C     1.932000000     1.978000000     4.400000000
H     0.990000000     2.520000000     4.356000000
C     4.112000000     1.414000000     3.527000000
H     4.750000000     1.231000000     2.666000000
O     1.967000000     4.113000000     2.184000000
H     2.003000000     2.138000000     1.405000000
C     3.265000000     3.526000000    -0.838000000
C     2.611000000     4.880000000    -0.469000000
H     2.648000000     5.524000000    -1.350000000
H     3.247000000     5.406000000     0.247000000
C     1.190000000     4.811000000     0.015000000
C     0.093000000     5.099000000    -0.790000000
H     0.299000000     5.568000000    -1.749000000
C     0.911000000     4.387000000     1.356000000
C    -0.417000000     4.094000000     1.757000000
H    -0.480000000     3.612000000     2.729000000
C    -1.469000000     4.339000000     0.918000000
O    -2.727000000     3.988000000     1.368000000
C    -3.192000000     2.673000000     0.912000000
C    -3.930000000     1.875000000     2.021000000
C    -3.371000000     1.846000000     3.300000000
H    -2.421000000     2.341000000     3.486000000
C    -5.065000000     1.170000000     1.737000000
H    -5.411000000     1.103000000     0.708000000
O    -4.094000000     2.991000000    -0.204000000
H    -2.261000000     2.201000000     0.566000000
C    -1.206000000     4.863000000    -0.355000000
C    -2.410000000     5.023000000    -1.397000000
H    -1.952000000     5.710000000    -2.112000000
H    -3.251000000     5.539000000    -0.930000000
C    -2.719000000     3.708000000    -2.029000000
C    -3.553000000     2.769000000    -1.408000000
C    -3.789000000     1.505000000    -2.008000000
H    -4.383000000     0.763000000    -1.481000000
C    -3.087000000     1.196000000    -3.236000000
O    -3.191000000    -0.079000000    -3.694000000
C    -2.146000000    -0.953000000    -3.348000000
H    -1.566000000    -0.369000000    -2.618000000
C    -2.690000000    -2.269000000    -2.781000000
C    -1.958000000    -3.493000000    -3.109000000
H    -1.056000000    -3.438000000    -3.713000000
C    -3.778000000    -2.349000000    -1.913000000
H    -4.362000000    -1.467000000    -1.662000000
C    -4.273000000    -3.652000000    -1.560000000
O    -5.182000000    -3.755000000    -0.561000000
C    -3.637000000    -4.772000000    -2.002000000
H    -3.998000000    -5.720000000    -1.611000000
C    -2.431000000    -4.702000000    -2.759000000
O    -1.919000000    -5.907000000    -3.164000000
C    -0.614000000    -6.041000000    -3.433000000
C     0.326000000    -5.793000000    -2.387000000
H    -0.012000000    -5.463000000    -1.408000000
C    -0.172000000    -6.807000000    -4.609000000
H    -0.970000000    -7.065000000    -5.301000000
C     1.146000000    -6.978000000    -4.815000000
H     1.386000000    -7.513000000    -5.730000000
C     2.056000000    -6.603000000    -3.809000000
H     3.136000000    -6.665000000    -3.919000000
C     1.631000000    -6.134000000    -2.601000000
O     2.549000000    -5.957000000    -1.614000000
C     2.749000000    -4.709000000    -1.025000000
C     3.486000000    -4.727000000     0.219000000
H     3.706000000    -5.661000000     0.730000000
C     3.977000000    -3.610000000     0.747000000
O     4.533000000    -3.713000000     2.052000000
C     5.477000000    -2.796000000     2.454000000
C     5.122000000    -1.912000000     3.451000000
H     4.184000000    -2.021000000     3.988000000
C     6.770000000    -2.721000000     1.882000000
H     6.985000000    -3.450000000     1.105000000
C     7.615000000    -1.683000000     2.188000000
H     8.591000000    -1.682000000     1.709000000
C     7.283000000    -0.799000000     3.198000000
H     7.961000000     0.036000000     3.357000000
C     6.020000000    -0.967000000     3.893000000
O     5.575000000     0.003000000     4.777000000
C     4.377000000     0.655000000     4.662000000
C     3.399000000     0.491000000     5.615000000
H     3.547000000    -0.076000000     6.531000000
C     2.146000000     1.120000000     5.500000000
O     1.168000000     0.828000000     6.488000000
C     0.043000000     1.566000000     6.420000000
C    -1.187000000     0.965000000     6.085000000
H    -1.157000000    -0.091000000     5.826000000
C    -0.014000000     2.934000000     6.846000000
H     0.884000000     3.428000000     7.206000000
C    -1.207000000     3.645000000     6.827000000
H    -1.226000000     4.679000000     7.160000000
C    -2.379000000     3.028000000     6.553000000
H    -3.280000000     3.623000000     6.681000000
C    -2.406000000     1.715000000     6.137000000
O    -3.619000000     1.210000000     5.630000000
C    -4.046000000     1.299000000     4.373000000
C    -5.254000000     0.604000000     4.032000000
H    -5.787000000     0.087000000     4.827000000
C    -5.688000000     0.418000000     2.744000000
O    -6.821000000    -0.373000000     2.425000000
C    -7.011000000    -1.159000000     1.299000000
C    -8.147000000    -1.021000000     0.508000000
H    -8.842000000    -0.206000000     0.692000000
C    -8.246000000    -1.691000000    -0.665000000
H    -9.085000000    -1.459000000    -1.317000000
C    -7.235000000    -2.564000000    -1.067000000
H    -7.335000000    -3.086000000    -2.015000000
C    -6.152000000    -2.752000000    -0.237000000
C    -5.962000000    -1.989000000     0.896000000
H    -5.090000000    -2.094000000     1.535000000
C     0.273000000    -0.969000000     2.437000000
H     0.852000000    -1.392000000     3.255000000
C     0.871000000    -0.292000000     1.357000000
H     1.954000000    -0.236000000     1.290000000
C     0.094000000     0.275000000     0.373000000
H     0.576000000     0.852000000    -0.315000000
C    -1.351000000     0.035000000     0.423000000
H    -1.913000000     0.367000000    -0.446000000
C    -1.901000000    -0.592000000     1.464000000
H    -2.947000000    -0.888000000     1.497000000
C    -1.136000000    -1.163000000     2.539000000
C    -1.700000000    -1.927000000     3.625000000
O    -2.919000000    -1.929000000     3.793000000
O    -0.989000000    -2.595000000     4.410000000
O    -5.313000000    -2.736000000     4.074000000
H    -5.709000000    -1.866000000     4.126000000
H    -4.374000000    -2.569000000     3.998000000
O    -1.415000000    -5.257000000     7.884000000
H    -1.204000000    -5.727000000     8.691000000
H    -1.797000000    -5.923000000     7.312000000
O    -5.533000000     1.427000000     7.615000000
H    -6.185000000     2.031000000     7.259000000
H    -4.692000000     1.801000000     7.356000000
O    -1.330000000    -6.345000000     0.957000000
H    -1.414000000    -5.932000000     1.817000000
H    -2.178000000    -6.765000000     0.810000000
O    -3.654000000    -6.226000000     6.257000000
H    -4.255000000    -5.542000000     5.963000000
H    -2.803000000    -5.966000000     5.905000000
O     1.510000000    -5.195000000     7.496000000
H     1.054000000    -4.369000000     7.332000000
H     1.600000000    -5.594000000     6.630000000
O    -3.738000000    -0.773000000     9.083000000
H    -4.386000000    -1.440000000     9.309000000
H    -3.522000000    -0.949000000     8.167000000
O     1.375000000    -6.565000000     1.733000000
H     0.785000000    -7.034000000     2.323000000
H     0.798000000    -6.001000000     1.217000000
O    -0.636000000    -2.665000000     6.996000000
H    -0.792000000    -2.558000000     6.057000000
H    -0.867000000    -3.576000000     7.174000000
O     0.599000000    -0.762000000     9.019000000
H    -0.019000000    -1.338000000     8.570000000
H     0.907000000    -0.164000000     8.337000000
O    -4.155000000    -5.526000000     2.834000000
H    -5.076000000    -5.266000000     2.813000000
H    -4.018000000    -5.985000000     2.005000000
O     2.319000000    -5.786000000     4.727000000
H     3.264000000    -5.712000000     4.589000000
H     2.002000000    -6.259000000     3.957000000
O    -3.397000000    -1.917000000     6.535000000
H    -3.465000000    -1.549000000     5.654000000
H    -2.930000000    -2.743000000     6.414000000
O    -1.744000000    -5.341000000     4.214000000
H    -2.630000000    -5.361000000     3.852000000
H    -1.532000000    -4.410000000     4.279000000
O    -0.213000000    -7.767000000     3.380000000
H    -0.701000000    -7.078000000     3.830000000
H    -0.788000000    -8.531000000     3.418000000
O     1.850000000    -3.090000000     4.987000000
H     1.936000000    -4.005000000     4.719000000
H     0.970000000    -2.839000000     4.707000000
O     3.912000000    -2.595000000     7.013000000
H     3.229000000    -2.658000000     6.345000000
H     4.365000000    -3.438000000     6.973000000
O    -5.704000000    -4.114000000     6.286000000
H    -5.647000000    -3.699000000     5.424000000
H    -5.243000000    -3.513000000     6.871000000
O    -8.243000000    -3.392000000     3.322000000
H    -7.577000000    -3.167000000     2.672000000
H    -8.050000000    -2.823000000     4.068000000
