215
-1430.91390
C     5.055000000    -1.676000000    -1.380000000
H     5.605000000    -0.764000000    -1.163000000
C     3.976000000    -1.733000000    -2.256000000
C     3.323000000    -2.957000000    -2.490000000
H     2.354000000    -3.059000000    -2.971000000
C     3.277000000    -0.410000000    -2.730000000
O     4.102000000     0.802000000    -2.708000000
H     2.528000000    -0.315000000    -1.930000000
O     2.634000000    -0.572000000    -4.005000000
C     1.414000000     0.047000000    -4.279000000
C     0.293000000    -0.848000000    -4.409000000
H     0.415000000    -1.928000000    -4.439000000
C    -0.937000000    -0.324000000    -4.600000000
O    -2.096000000    -1.171000000    -4.533000000
C    -1.148000000     1.090000000    -4.627000000
C    -2.572000000     1.649000000    -4.847000000
H    -2.455000000     2.608000000    -5.356000000
C    -3.174000000     1.860000000    -3.415000000
C    -2.938000000     2.984000000    -2.670000000
H    -2.428000000     3.835000000    -3.113000000
H    -3.166000000     0.973000000    -5.465000000
C    -0.052000000     1.935000000    -4.554000000
H    -0.217000000     3.004000000    -4.653000000
C     1.244000000     1.437000000    -4.419000000
C     2.402000000     2.471000000    -4.341000000
H     2.259000000     3.374000000    -4.938000000
H     3.254000000     1.938000000    -4.769000000
C     2.777000000     2.857000000    -2.862000000
C     2.253000000     3.967000000    -2.236000000
H     1.538000000     4.590000000    -2.768000000
C     3.653000000     2.015000000    -2.166000000
C     4.045000000     2.251000000    -0.830000000
H     4.615000000     1.512000000    -0.273000000
C     3.394000000     3.288000000    -0.143000000
O     3.584000000     3.320000000     1.181000000
C     2.453000000     2.814000000     1.959000000
C     3.020000000     1.940000000     3.109000000
C     2.259000000     1.821000000     4.270000000
H     1.277000000     2.285000000     4.271000000
C     4.212000000     1.129000000     3.008000000
H     4.755000000     1.054000000     2.069000000
O     1.565000000     3.820000000     2.432000000
H     1.857000000     2.120000000     1.349000000
C     2.564000000     4.188000000    -0.843000000
C     1.780000000     5.291000000    -0.066000000
H     1.730000000     6.141000000    -0.750000000
H     2.356000000     5.668000000     0.781000000
C     0.470000000     4.851000000     0.476000000
C    -0.636000000     4.798000000    -0.394000000
H    -0.592000000     5.333000000    -1.340000000
C     0.428000000     4.081000000     1.679000000
C    -0.755000000     3.713000000     2.184000000
H    -0.723000000     3.040000000     3.038000000
C    -1.936000000     3.821000000     1.423000000
O    -3.030000000     3.264000000     1.959000000
C    -3.561000000     1.990000000     1.449000000
C    -4.054000000     1.158000000     2.617000000
C    -3.285000000     1.096000000     3.843000000
H    -2.427000000     1.750000000     3.975000000
C    -5.162000000     0.235000000     2.416000000
H    -5.677000000     0.177000000     1.460000000
O    -4.554000000     2.208000000     0.478000000
H    -2.746000000     1.435000000     0.961000000
C    -1.891000000     4.310000000     0.119000000
C    -3.247000000     4.405000000    -0.617000000
H    -3.088000000     5.227000000    -1.318000000
H    -4.111000000     4.678000000    -0.008000000
C    -3.465000000     3.104000000    -1.409000000
C    -4.177000000     2.096000000    -0.815000000
C    -4.429000000     0.954000000    -1.554000000
H    -4.965000000     0.172000000    -1.022000000
C    -3.953000000     0.852000000    -2.840000000
O    -3.982000000    -0.449000000    -3.372000000
C    -2.737000000    -1.188000000    -3.249000000
H    -2.019000000    -0.781000000    -2.521000000
C    -2.934000000    -2.606000000    -2.703000000
C    -2.029000000    -3.609000000    -3.063000000
H    -1.461000000    -3.562000000    -3.989000000
C    -3.733000000    -2.794000000    -1.550000000
H    -4.286000000    -1.924000000    -1.204000000
C    -3.735000000    -4.031000000    -0.913000000
O    -4.464000000    -4.242000000     0.251000000
C    -3.035000000    -5.100000000    -1.422000000
H    -3.041000000    -6.097000000    -0.989000000
C    -2.172000000    -4.891000000    -2.467000000
O    -1.404000000    -5.904000000    -3.013000000
C    -0.114000000    -5.751000000    -3.512000000
C     1.001000000    -5.660000000    -2.691000000
H     0.820000000    -5.606000000    -1.620000000
C     0.077000000    -5.854000000    -4.833000000
H    -0.756000000    -6.021000000    -5.510000000
C     1.388000000    -5.860000000    -5.358000000
H     1.580000000    -6.103000000    -6.400000000
C     2.498000000    -5.839000000    -4.511000000
H     3.489000000    -5.841000000    -4.959000000
C     2.304000000    -5.611000000    -3.161000000
O     3.404000000    -5.395000000    -2.356000000
C     3.797000000    -4.142000000    -1.933000000
C     4.937000000    -4.064000000    -1.151000000
H     5.376000000    -5.037000000    -0.947000000
C     5.524000000    -2.874000000    -0.769000000
O     6.712000000    -2.826000000     0.005000000
C     6.939000000    -1.781000000     0.862000000
C     6.315000000    -1.800000000     2.062000000
H     5.430000000    -2.427000000     2.137000000
C     7.964000000    -0.891000000     0.641000000
H     8.522000000    -1.020000000    -0.283000000
C     8.314000000     0.054000000     1.575000000
H     9.058000000     0.836000000     1.451000000
C     7.618000000     0.090000000     2.808000000
H     7.748000000     0.900000000     3.521000000
C     6.556000000    -0.788000000     3.011000000
O     5.724000000    -0.518000000     4.087000000
C     4.529000000     0.239000000     4.101000000
C     3.743000000     0.236000000     5.189000000
H     4.049000000    -0.429000000     5.993000000
C     2.613000000     1.041000000     5.364000000
O     1.799000000     0.819000000     6.401000000
C     0.522000000     1.435000000     6.530000000
C    -0.476000000     0.590000000     6.239000000
H    -0.250000000    -0.438000000     5.967000000
C     0.399000000     2.765000000     6.841000000
H     1.190000000     3.479000000     7.058000000
C    -0.896000000     3.210000000     6.967000000
H    -1.024000000     4.259000000     7.219000000
C    -2.035000000     2.406000000     6.671000000
H    -3.088000000     2.613000000     6.847000000
C    -1.800000000     1.054000000     6.307000000
O    -2.901000000     0.163000000     6.046000000
C    -3.694000000     0.267000000     4.914000000
C    -4.739000000    -0.599000000     4.650000000
H    -5.061000000    -1.256000000     5.454000000
C    -5.569000000    -0.569000000     3.496000000
O    -6.578000000    -1.461000000     3.400000000
C    -6.709000000    -2.342000000     2.363000000
C    -7.771000000    -2.091000000     1.533000000
H    -8.549000000    -1.439000000     1.922000000
C    -7.784000000    -2.553000000     0.203000000
H    -8.659000000    -2.297000000    -0.389000000
C    -6.706000000    -3.367000000    -0.238000000
H    -6.766000000    -3.765000000    -1.248000000
C    -5.644000000    -3.632000000     0.626000000
C    -5.620000000    -3.090000000     1.854000000
H    -4.814000000    -3.253000000     2.565000000
C     0.123000000    -1.187000000     2.984000000
H     0.784000000    -1.351000000     3.832000000
C     0.446000000    -0.393000000     1.808000000
H     1.398000000     0.128000000     1.871000000
C    -0.339000000    -0.288000000     0.666000000
H     0.038000000     0.336000000    -0.185000000
C    -1.642000000    -0.810000000     0.836000000
H    -2.373000000    -0.623000000     0.053000000
C    -2.031000000    -1.522000000     1.964000000
H    -3.042000000    -1.920000000     1.963000000
C    -1.109000000    -1.788000000     3.036000000
C    -1.480000000    -2.638000000     4.241000000
O    -2.434000000    -3.454000000     4.101000000
O    -0.704000000    -2.681000000     5.185000000
O    -5.152000000    -5.168000000     4.260000000
H    -4.570000000    -5.917000000     4.392000000
H    -4.569000000    -4.409000000     4.265000000
O    -2.196000000    -5.576000000     2.739000000
H    -2.076000000    -4.670000000     3.024000000
H    -2.701000000    -5.983000000     3.442000000
O    -2.816000000    -0.698000000     8.602000000
H    -3.044000000    -0.504000000     7.693000000
H    -2.214000000    -1.440000000     8.545000000
O    -0.909000000     0.394000000    10.456000000
H    -1.529000000     0.358000000     9.728000000
H    -0.697000000    -0.522000000    10.636000000
O    -7.003000000    -3.892000000     5.849000000
H    -6.515000000    -3.432000000     6.532000000
H    -6.338000000    -4.393000000     5.376000000
O    -3.360000000    -7.107000000     4.812000000
H    -3.332000000    -8.061000000     4.884000000
H    -2.598000000    -6.807000000     5.307000000
O     2.522000000    -7.125000000     1.102000000
H     1.801000000    -6.547000000     0.853000000
H     2.597000000    -7.742000000     0.374000000
O     4.183000000    -4.505000000     6.793000000
H     3.727000000    -4.330000000     5.970000000
H     5.058000000    -4.786000000     6.526000000
O    -6.309000000    -2.818000000     8.450000000
H    -5.471000000    -2.809000000     7.988000000
H    -6.425000000    -3.729000000     8.718000000
O    -1.337000000    -2.729000000     7.841000000
H    -1.084000000    -2.592000000     6.928000000
H    -1.611000000    -3.646000000     7.878000000
O     1.544000000    -2.262000000     8.139000000
H     0.670000000    -2.573000000     8.375000000
H     1.524000000    -1.324000000     8.329000000
O    -3.931000000    -3.427000000     6.618000000
H    -3.505000000    -3.443000000     5.761000000
H    -3.411000000    -4.025000000     7.155000000
O     2.810000000    -4.892000000     4.200000000
H     2.297000000    -4.655000000     4.973000000
H     2.367000000    -4.453000000     3.474000000
O     1.521000000    -3.707000000     2.112000000
H     1.022000000    -4.306000000     1.556000000
H     0.937000000    -2.961000000     2.246000000
O    -0.064000000    -5.606000000     0.870000000
H    -0.246000000    -6.400000000     0.368000000
H    -0.807000000    -5.526000000     1.468000000
O     0.936000000    -4.246000000     6.332000000
H     1.584000000    -3.663000000     6.729000000
H     0.378000000    -3.666000000     5.813000000
O    -0.810000000    -6.470000000     6.398000000
H    -0.117000000    -7.092000000     6.175000000
H    -0.365000000    -5.624000000     6.451000000
O    -6.936000000    -7.299000000     3.751000000
H    -6.265000000    -6.677000000     4.033000000
H    -6.964000000    -7.205000000     2.798000000
O    -2.506000000    -5.273000000     7.973000000
H    -2.172000000    -5.666000000     8.779000000
H    -2.015000000    -5.706000000     7.274000000
