215
-1444.17957
C     5.447000000    -1.819000000    -0.342000000
H     5.880000000    -1.117000000     0.366000000
C     4.508000000    -1.406000000    -1.326000000
C     3.902000000    -2.373000000    -2.149000000
H     3.136000000    -2.048000000    -2.849000000
C     4.038000000     0.008000000    -1.513000000
O     4.802000000     0.991000000    -0.801000000
H     3.019000000     0.065000000    -1.102000000
O     3.930000000     0.538000000    -2.827000000
C     2.839000000     1.246000000    -3.091000000
C     1.893000000     0.644000000    -3.864000000
H     1.959000000    -0.422000000    -4.063000000
C     0.745000000     1.283000000    -4.258000000
O    -0.249000000     0.597000000    -4.873000000
C     0.653000000     2.677000000    -4.029000000
C    -0.663000000     3.313000000    -4.374000000
H    -0.514000000     4.378000000    -4.563000000
C    -1.735000000     3.166000000    -3.309000000
C    -1.769000000     4.075000000    -2.228000000
H    -1.169000000     4.980000000    -2.286000000
H    -1.034000000     2.847000000    -5.289000000
C     1.641000000     3.324000000    -3.310000000
H     1.526000000     4.397000000    -3.176000000
C     2.771000000     2.606000000    -2.934000000
C     3.829000000     3.329000000    -2.197000000
H     3.764000000     4.408000000    -2.352000000
H     4.844000000     3.209000000    -2.583000000
C     3.712000000     3.176000000    -0.765000000
C     3.090000000     4.088000000     0.024000000
H     2.713000000     5.006000000    -0.418000000
C     4.199000000     2.005000000    -0.093000000
C     4.122000000     1.877000000     1.266000000
H     4.564000000     0.998000000     1.728000000
C     3.383000000     2.735000000     1.994000000
O     2.986000000     2.351000000     3.294000000
C     1.651000000     1.835000000     3.464000000
C     1.563000000     0.561000000     4.275000000
C     0.417000000     0.176000000     5.033000000
H    -0.484000000     0.783000000     5.069000000
C     2.630000000    -0.361000000     4.240000000
H     3.467000000    -0.084000000     3.603000000
O     0.768000000     2.806000000     4.030000000
H     1.323000000     1.419000000     2.500000000
C     2.814000000     3.861000000     1.349000000
C     1.877000000     4.781000000     2.159000000
H     1.920000000     5.812000000     1.801000000
H     2.254000000     4.846000000     3.181000000
C     0.427000000     4.377000000     2.160000000
C    -0.430000000     4.789000000     1.164000000
H     0.039000000     5.460000000     0.449000000
C    -0.009000000     3.401000000     3.093000000
C    -1.374000000     3.133000000     3.058000000
H    -1.780000000     2.299000000     3.624000000
C    -2.285000000     3.549000000     2.123000000
O    -3.557000000     3.014000000     2.090000000
C    -3.757000000     1.901000000     1.108000000
C    -4.547000000     0.728000000     1.694000000
C    -4.575000000     0.510000000     3.094000000
H    -4.058000000     1.153000000     3.802000000
C    -5.030000000    -0.251000000     0.832000000
H    -4.882000000    -0.095000000    -0.233000000
O    -4.289000000     2.298000000    -0.176000000
H    -2.767000000     1.461000000     0.920000000
C    -1.715000000     4.338000000     1.071000000
C    -2.657000000     4.826000000    -0.050000000
H    -2.333000000     5.802000000    -0.417000000
H    -3.677000000     4.918000000     0.329000000
C    -2.632000000     3.892000000    -1.167000000
C    -3.549000000     2.788000000    -1.211000000
C    -3.573000000     1.947000000    -2.270000000
H    -4.140000000     1.020000000    -2.297000000
C    -2.636000000     2.101000000    -3.319000000
O    -2.436000000     1.042000000    -4.196000000
C    -1.333000000     0.169000000    -4.049000000
H    -1.015000000     0.089000000    -2.999000000
C    -1.763000000    -1.244000000    -4.411000000
C    -0.898000000    -2.209000000    -4.796000000
H     0.165000000    -1.987000000    -4.843000000
C    -3.087000000    -1.683000000    -4.241000000
H    -3.846000000    -0.978000000    -3.911000000
C    -3.512000000    -3.008000000    -4.386000000
O    -4.816000000    -3.365000000    -4.230000000
C    -2.617000000    -3.947000000    -4.866000000
H    -2.960000000    -4.973000000    -4.971000000
C    -1.268000000    -3.546000000    -5.112000000
O    -0.304000000    -4.547000000    -5.460000000
C     1.023000000    -4.392000000    -5.251000000
C     1.680000000    -4.677000000    -4.085000000
H     1.164000000    -5.161000000    -3.259000000
C     1.794000000    -3.880000000    -6.326000000
H     1.317000000    -3.777000000    -7.297000000
C     3.164000000    -3.619000000    -6.246000000
H     3.734000000    -3.154000000    -7.046000000
C     3.794000000    -3.774000000    -4.991000000
H     4.837000000    -3.485000000    -4.890000000
C     3.065000000    -4.352000000    -3.974000000
O     3.704000000    -4.693000000    -2.800000000
C     4.195000000    -3.743000000    -1.978000000
C     5.003000000    -4.133000000    -0.861000000
H     5.091000000    -5.199000000    -0.667000000
C     5.593000000    -3.138000000    -0.106000000
O     6.381000000    -3.483000000     0.953000000
C     6.135000000    -2.908000000     2.144000000
C     4.919000000    -3.016000000     2.807000000
H     4.097000000    -3.626000000     2.440000000
C     7.148000000    -2.134000000     2.699000000
H     8.090000000    -2.064000000     2.162000000
C     6.916000000    -1.561000000     3.960000000
H     7.728000000    -1.044000000     4.464000000
C     5.697000000    -1.723000000     4.658000000
H     5.475000000    -1.385000000     5.667000000
C     4.664000000    -2.400000000     4.002000000
O     3.478000000    -2.558000000     4.725000000
C     2.548000000    -1.589000000     4.919000000
C     1.455000000    -1.969000000     5.650000000
H     1.306000000    -2.946000000     6.102000000
C     0.357000000    -1.035000000     5.692000000
O    -0.749000000    -1.471000000     6.385000000
C    -1.936000000    -0.838000000     6.467000000
C    -3.031000000    -1.170000000     5.643000000
H    -2.928000000    -1.927000000     4.870000000
C    -2.128000000     0.210000000     7.402000000
H    -1.302000000     0.466000000     8.061000000
C    -3.416000000     0.770000000     7.603000000
H    -3.637000000     1.596000000     8.273000000
C    -4.503000000     0.361000000     6.790000000
H    -5.489000000     0.815000000     6.848000000
C    -4.260000000    -0.529000000     5.710000000
O    -5.278000000    -0.932000000     4.858000000
C    -5.223000000    -0.646000000     3.504000000
C    -5.689000000    -1.604000000     2.636000000
H    -6.049000000    -2.538000000     3.060000000
C    -5.541000000    -1.440000000     1.287000000
O    -5.705000000    -2.549000000     0.455000000
C    -6.104000000    -2.528000000    -0.829000000
C    -7.252000000    -1.829000000    -1.175000000
H    -7.862000000    -1.377000000    -0.397000000
C    -7.567000000    -1.696000000    -2.544000000
H    -8.406000000    -1.083000000    -2.863000000
C    -6.801000000    -2.302000000    -3.505000000
H    -6.996000000    -2.205000000    -4.570000000
C    -5.651000000    -2.959000000    -3.173000000
C    -5.267000000    -3.102000000    -1.849000000
H    -4.309000000    -3.576000000    -1.647000000
C    -0.219000000    -2.026000000     2.294000000
H     0.313000000    -2.511000000     3.108000000
C     0.322000000    -0.909000000     1.611000000
H     1.320000000    -0.588000000     1.897000000
C    -0.442000000    -0.203000000     0.682000000
H     0.013000000     0.676000000     0.174000000
C    -1.638000000    -0.705000000     0.265000000
H    -2.217000000    -0.210000000    -0.511000000
C    -2.128000000    -1.887000000     0.869000000
H    -2.953000000    -2.360000000     0.343000000
C    -1.447000000    -2.490000000     1.887000000
C    -1.967000000    -3.790000000     2.497000000
O    -3.072000000    -4.061000000     2.278000000
O    -1.322000000    -4.353000000     3.382000000
O    -3.787000000    -5.574000000     0.445000000
H    -2.959000000    -5.471000000    -0.024000000
H    -3.763000000    -4.901000000     1.125000000
O    -2.183000000    -6.849000000     2.786000000
H    -3.039000000    -6.716000000     2.380000000
H    -1.922000000    -5.977000000     3.084000000
O    -5.592000000    -7.065000000     3.727000000
H    -6.282000000    -7.559000000     3.285000000
H    -5.296000000    -7.644000000     4.430000000
O     3.704000000    -5.823000000     4.105000000
H     2.767000000    -5.625000000     4.081000000
H     3.916000000    -6.087000000     3.210000000
O    -5.179000000    -3.330000000     7.383000000
H    -4.529000000    -3.461000000     6.693000000
H    -4.661000000    -3.187000000     8.176000000
O     0.869000000    -4.572000000     0.326000000
H     1.259000000    -5.088000000     1.032000000
H     0.466000000    -3.826000000     0.770000000
O    -1.442000000    -5.893000000    -1.364000000
H    -0.710000000    -5.442000000    -0.944000000
H    -1.078000000    -6.226000000    -2.185000000
O     0.378000000    -5.793000000     5.530000000
H    -0.032000000    -5.269000000     4.842000000
H    -0.118000000    -5.579000000     6.321000000
O     0.359000000    -7.953000000     1.183000000
H     0.108000000    -8.489000000     0.431000000
H     1.014000000    -8.478000000     1.643000000
O    -2.346000000    -4.317000000     6.279000000
H    -2.544000000    -4.549000000     5.371000000
H    -1.597000000    -3.725000000     6.217000000
O    -5.172000000    -6.226000000    -1.658000000
H    -4.620000000    -6.083000000    -0.890000000
H    -4.585000000    -6.614000000    -2.307000000
O     0.903000000    -5.712000000     2.772000000
H     0.470000000    -6.484000000     2.408000000
H     0.184000000    -5.139000000     3.041000000
O    -4.764000000    -4.730000000     4.551000000
H    -4.479000000    -4.273000000     3.759000000
H    -5.137000000    -5.552000000     4.233000000
O     2.265000000    -6.819000000    -0.751000000
H     1.717000000    -6.039000000    -0.666000000
H     1.667000000    -7.550000000    -0.595000000
O    -7.384000000    -5.238000000     1.669000000
H    -6.618000000    -4.789000000     2.028000000
H    -8.059000000    -5.134000000     2.339000000
O    -5.196000000    -8.460000000     0.901000000
H    -5.144000000    -7.505000000     0.917000000
H    -4.447000000    -8.732000000     0.371000000
O    -2.096000000    -9.995000000     1.550000000
H    -1.846000000    -9.071000000     1.530000000
H    -2.317000000   -10.163000000     2.466000000
O    -1.876000000    -9.456000000     4.414000000
H    -0.993000000    -9.268000000     4.732000000
H    -2.145000000    -8.654000000     3.965000000
O    -4.624000000    -6.458000000     6.858000000
H    -4.910000000    -5.871000000     6.157000000
H    -3.713000000    -6.212000000     7.019000000
