215
-1471.77696
C     4.215000000    -2.620000000    -1.000000000
H     4.781000000    -1.933000000    -0.377000000
C     3.540000000    -2.113000000    -2.130000000
C     2.749000000    -2.959000000    -2.901000000
H     2.149000000    -2.488000000    -3.676000000
C     3.474000000    -0.616000000    -2.409000000
O     4.557000000     0.116000000    -1.828000000
H     2.575000000    -0.223000000    -1.912000000
O     3.345000000    -0.279000000    -3.833000000
C     2.287000000     0.631000000    -4.031000000
C     1.059000000     0.227000000    -4.557000000
H     0.892000000    -0.816000000    -4.815000000
C     0.052000000     1.124000000    -4.655000000
O    -1.162000000     0.675000000    -4.955000000
C     0.161000000     2.452000000    -4.284000000
C    -1.025000000     3.432000000    -4.296000000
H    -0.646000000     4.424000000    -4.549000000
C    -1.844000000     3.444000000    -3.001000000
C    -1.504000000     4.329000000    -1.946000000
H    -0.741000000     5.095000000    -2.059000000
H    -1.740000000     3.240000000    -5.099000000
C     1.441000000     2.857000000    -3.895000000
H     1.497000000     3.911000000    -3.632000000
C     2.495000000     1.995000000    -3.719000000
C     3.852000000     2.488000000    -3.188000000
H     4.050000000     3.513000000    -3.509000000
H     4.660000000     1.991000000    -3.729000000
C     3.883000000     2.397000000    -1.730000000
C     3.478000000     3.512000000    -0.964000000
H     3.201000000     4.453000000    -1.434000000
C     4.263000000     1.195000000    -1.073000000
C     4.238000000     0.975000000     0.317000000
H     4.579000000     0.065000000     0.805000000
C     3.886000000     2.052000000     1.048000000
O     3.807000000     1.841000000     2.475000000
C     2.583000000     1.449000000     3.069000000
C     2.636000000     0.250000000     4.072000000
C     1.617000000     0.172000000     5.064000000
H     0.877000000     0.950000000     5.231000000
C     3.605000000    -0.755000000     3.944000000
H     4.496000000    -0.616000000     3.337000000
O     1.994000000     2.634000000     3.627000000
H     1.892000000     1.023000000     2.327000000
C     3.513000000     3.316000000     0.459000000
C     2.941000000     4.328000000     1.371000000
H     3.049000000     5.363000000     1.039000000
H     3.402000000     4.322000000     2.360000000
C     1.462000000     4.104000000     1.729000000
C     0.483000000     4.859000000     1.016000000
H     0.765000000     5.458000000     0.154000000
C     1.041000000     3.307000000     2.853000000
C    -0.292000000     3.291000000     3.197000000
H    -0.593000000     2.642000000     4.015000000
C    -1.229000000     3.981000000     2.461000000
O    -2.535000000     3.643000000     2.675000000
C    -3.042000000     2.559000000     1.788000000
C    -3.796000000     1.472000000     2.479000000
C    -3.741000000     1.356000000     3.886000000
H    -3.158000000     2.011000000     4.529000000
C    -4.378000000     0.440000000     1.752000000
H    -4.333000000     0.476000000     0.667000000
O    -3.839000000     3.204000000     0.764000000
H    -2.155000000     2.120000000     1.309000000
C    -0.838000000     4.684000000     1.304000000
C    -1.837000000     5.328000000     0.341000000
H    -1.425000000     6.203000000    -0.166000000
H    -2.709000000     5.699000000     0.884000000
C    -2.185000000     4.311000000    -0.782000000
C    -3.228000000     3.357000000    -0.527000000
C    -3.484000000     2.493000000    -1.563000000
H    -4.323000000     1.803000000    -1.573000000
C    -2.819000000     2.527000000    -2.816000000
O    -3.008000000     1.540000000    -3.686000000
C    -2.067000000     0.410000000    -3.863000000
H    -1.466000000     0.199000000    -2.966000000
C    -2.832000000    -0.925000000    -4.068000000
C    -2.237000000    -1.927000000    -4.815000000
H    -1.242000000    -1.702000000    -5.190000000
C    -4.051000000    -1.147000000    -3.453000000
H    -4.482000000    -0.370000000    -2.828000000
C    -4.720000000    -2.393000000    -3.654000000
O    -5.886000000    -2.662000000    -2.939000000
C    -4.136000000    -3.421000000    -4.423000000
H    -4.623000000    -4.389000000    -4.509000000
C    -2.824000000    -3.189000000    -4.987000000
O    -2.234000000    -4.167000000    -5.724000000
C    -0.842000000    -4.320000000    -5.729000000
C    -0.253000000    -4.647000000    -4.433000000
H    -0.871000000    -4.811000000    -3.554000000
C    -0.028000000    -4.213000000    -6.881000000
H    -0.454000000    -3.955000000    -7.847000000
C     1.359000000    -4.319000000    -6.708000000
H     2.046000000    -3.968000000    -7.473000000
C     1.991000000    -4.662000000    -5.557000000
H     3.053000000    -4.591000000    -5.341000000
C     1.129000000    -4.818000000    -4.422000000
O     1.746000000    -5.166000000    -3.259000000
C     2.621000000    -4.325000000    -2.568000000
C     3.307000000    -4.819000000    -1.454000000
H     3.306000000    -5.857000000    -1.132000000
C     4.117000000    -3.977000000    -0.648000000
O     4.753000000    -4.653000000     0.393000000
C     5.357000000    -4.062000000     1.459000000
C     4.630000000    -3.552000000     2.522000000
H     3.549000000    -3.658000000     2.562000000
C     6.766000000    -3.979000000     1.480000000
H     7.461000000    -4.395000000     0.754000000
C     7.432000000    -3.376000000     2.518000000
H     8.504000000    -3.196000000     2.526000000
C     6.664000000    -3.020000000     3.631000000
H     7.219000000    -2.705000000     4.511000000
C     5.292000000    -3.077000000     3.608000000
O     4.600000000    -2.842000000     4.780000000
C     3.595000000    -1.824000000     4.834000000
C     2.527000000    -1.989000000     5.781000000
H     2.426000000    -2.901000000     6.364000000
C     1.535000000    -1.013000000     5.795000000
O     0.609000000    -1.159000000     6.835000000
C    -0.489000000    -0.356000000     7.077000000
C    -1.707000000    -0.576000000     6.420000000
H    -1.937000000    -1.535000000     5.963000000
C    -0.298000000     0.811000000     7.762000000
H     0.674000000     0.993000000     8.212000000
C    -1.412000000     1.634000000     7.948000000
H    -1.337000000     2.539000000     8.545000000
C    -2.647000000     1.402000000     7.322000000
H    -3.494000000     2.080000000     7.377000000
C    -2.817000000     0.287000000     6.581000000
O    -4.034000000     0.078000000     5.915000000
C    -4.202000000     0.230000000     4.483000000
C    -4.917000000    -0.714000000     3.776000000
H    -5.364000000    -1.565000000     4.285000000
C    -5.050000000    -0.548000000     2.401000000
O    -5.645000000    -1.533000000     1.641000000
C    -6.305000000    -1.300000000     0.462000000
C    -7.512000000    -0.690000000     0.383000000
H    -8.034000000    -0.205000000     1.204000000
C    -8.139000000    -0.613000000    -0.841000000
H    -9.067000000    -0.049000000    -0.893000000
C    -7.645000000    -1.231000000    -2.018000000
H    -8.121000000    -1.184000000    -2.995000000
C    -6.402000000    -1.917000000    -1.867000000
C    -5.693000000    -1.865000000    -0.649000000
H    -4.706000000    -2.288000000    -0.482000000
C     0.758000000    -2.473000000     1.217000000
H     1.109000000    -3.447000000     0.884000000
C     0.966000000    -1.365000000     0.362000000
H     1.552000000    -1.502000000    -0.544000000
C     0.335000000    -0.159000000     0.694000000
H     0.517000000     0.690000000     0.086000000
C    -0.377000000    -0.067000000     1.836000000
H    -0.727000000     0.937000000     2.061000000
C    -0.549000000    -1.155000000     2.725000000
H    -1.141000000    -1.139000000     3.637000000
C     0.033000000    -2.364000000     2.398000000
C    -0.177000000    -3.573000000     3.189000000
O    -1.187000000    -3.608000000     3.876000000
O     0.486000000    -4.607000000     3.065000000
O    -3.418000000    -4.188000000     5.522000000
H    -4.077000000    -4.679000000     5.032000000
H    -2.690000000    -4.087000000     4.909000000
O    -0.060000000    -6.558000000     1.198000000
H     0.119000000    -5.826000000     1.788000000
H    -0.917000000    -6.883000000     1.472000000
O     4.105000000    -6.013000000     6.247000000
H     4.137000000    -5.796000000     5.315000000
H     3.274000000    -6.475000000     6.357000000
O     1.802000000    -8.688000000     2.637000000
H     0.882000000    -8.688000000     2.902000000
H     1.776000000    -8.644000000     1.682000000
O     2.008000000    -8.004000000     6.742000000
H     1.075000000    -8.055000000     6.535000000
H     2.403000000    -8.720000000     6.245000000
O    -2.247000000    -2.690000000     0.151000000
H    -1.682000000    -3.242000000    -0.390000000
H    -1.667000000    -2.003000000     0.479000000
O    -3.397000000    -4.601000000     1.515000000
H    -2.632000000    -4.524000000     2.085000000
H    -3.345000000    -3.838000000     0.940000000
O    -0.476000000    -4.394000000     6.521000000
H    -0.830000000    -3.907000000     5.777000000
H     0.473000000    -4.340000000     6.413000000
O    -1.755000000    -3.443000000     8.798000000
H    -1.438000000    -3.905000000     9.574000000
H    -1.412000000    -3.949000000     8.062000000
O     1.095000000    -8.725000000     0.119000000
H     1.348000000    -8.577000000    -0.792000000
H     0.657000000    -7.916000000     0.381000000
O    -4.388000000    -2.423000000     7.866000000
H    -4.194000000    -2.708000000     6.973000000
H    -3.549000000    -2.481000000     8.323000000
O    -3.296000000    -7.150000000     0.376000000
H    -3.596000000    -6.741000000    -0.436000000
H    -3.297000000    -6.439000000     1.017000000
O    -1.593000000    -6.625000000     3.942000000
H    -2.300000000    -6.291000000     4.494000000
H    -0.985000000    -5.890000000     3.863000000
O     2.669000000    -5.932000000     3.455000000
H     2.311000000    -6.810000000     3.592000000
H     1.914000000    -5.403000000     3.198000000
O    -4.445000000    -6.526000000     4.709000000
H    -4.729000000    -7.084000000     5.432000000
H    -4.805000000    -6.944000000     3.927000000
O    -0.633000000    -4.435000000    -1.078000000
H    -1.109000000    -5.266000000    -1.093000000
H     0.290000000    -4.688000000    -1.096000000
O    -0.979000000    -9.230000000     3.551000000
H    -1.665000000    -9.807000000     3.887000000
H    -1.353000000    -8.351000000     3.613000000
O     4.956000000    -7.287000000     2.435000000
H     4.051000000    -7.589000000     2.512000000
H     4.903000000    -6.338000000     2.546000000
O    -0.554000000    -8.400000000     6.467000000
H    -1.010000000    -8.957000000     5.836000000
H    -1.242000000    -7.847000000     6.839000000
