215
-1476.51037
C     4.177000000    -2.569000000    -1.023000000
H     4.552000000    -1.869000000    -0.281000000
C     3.695000000    -2.072000000    -2.186000000
C     3.160000000    -2.864000000    -3.193000000
H     2.682000000    -2.426000000    -4.066000000
C     3.436000000    -0.592000000    -2.348000000
O     4.528000000     0.127000000    -1.779000000
H     2.474000000    -0.441000000    -1.836000000
O     3.254000000    -0.118000000    -3.791000000
C     2.319000000     0.897000000    -3.990000000
C     1.090000000     0.511000000    -4.505000000
H     1.018000000    -0.552000000    -4.717000000
C     0.028000000     1.400000000    -4.522000000
O    -1.229000000     0.883000000    -4.821000000
C     0.163000000     2.672000000    -4.140000000
C    -1.032000000     3.644000000    -3.985000000
H    -0.537000000     4.609000000    -4.113000000
C    -1.795000000     3.520000000    -2.680000000
C    -1.650000000     4.470000000    -1.649000000
H    -0.837000000     5.158000000    -1.865000000
H    -1.686000000     3.598000000    -4.858000000
C     1.422000000     3.081000000    -3.673000000
H     1.633000000     4.110000000    -3.395000000
C     2.518000000     2.206000000    -3.600000000
C     3.836000000     2.626000000    -3.085000000
H     3.954000000     3.662000000    -3.410000000
H     4.631000000     1.979000000    -3.461000000
C     3.828000000     2.454000000    -1.569000000
C     3.460000000     3.477000000    -0.704000000
H     2.989000000     4.402000000    -1.027000000
C     4.221000000     1.242000000    -0.985000000
C     4.320000000     1.133000000     0.446000000
H     4.726000000     0.176000000     0.765000000
C     3.885000000     2.076000000     1.270000000
O     3.831000000     1.834000000     2.610000000
C     2.513000000     1.477000000     3.105000000
C     2.451000000     0.197000000     3.979000000
C     1.356000000    -0.078000000     4.864000000
H     0.520000000     0.587000000     5.067000000
C     3.494000000    -0.748000000     3.857000000
H     4.367000000    -0.590000000     3.229000000
O     1.785000000     2.593000000     3.626000000
H     1.968000000     1.243000000     2.179000000
C     3.438000000     3.308000000     0.726000000
C     2.839000000     4.374000000     1.626000000
H     3.186000000     5.324000000     1.215000000
H     3.336000000     4.345000000     2.598000000
C     1.339000000     4.264000000     1.892000000
C     0.333000000     5.020000000     1.201000000
H     0.636000000     5.714000000     0.422000000
C     0.882000000     3.403000000     2.915000000
C    -0.446000000     3.343000000     3.306000000
H    -0.677000000     2.685000000     4.140000000
C    -1.433000000     3.986000000     2.582000000
O    -2.681000000     3.502000000     2.791000000
C    -3.211000000     2.486000000     1.926000000
C    -3.996000000     1.422000000     2.678000000
C    -3.745000000     1.189000000     4.022000000
H    -3.010000000     1.762000000     4.581000000
C    -4.690000000     0.520000000     1.927000000
H    -4.747000000     0.663000000     0.851000000
O    -3.962000000     3.146000000     0.873000000
H    -2.356000000     1.955000000     1.482000000
C    -1.040000000     4.790000000     1.464000000
C    -2.113000000     5.403000000     0.602000000
H    -1.758000000     6.393000000     0.308000000
H    -2.998000000     5.588000000     1.214000000
C    -2.379000000     4.382000000    -0.496000000
C    -3.205000000     3.308000000    -0.260000000
C    -3.440000000     2.418000000    -1.329000000
H    -4.137000000     1.611000000    -1.123000000
C    -2.774000000     2.495000000    -2.526000000
O    -2.967000000     1.510000000    -3.503000000
C    -1.970000000     0.458000000    -3.676000000
H    -1.323000000     0.473000000    -2.787000000
C    -2.623000000    -0.893000000    -3.988000000
C    -2.051000000    -1.846000000    -4.787000000
H    -1.177000000    -1.546000000    -5.359000000
C    -3.717000000    -1.250000000    -3.143000000
H    -4.082000000    -0.556000000    -2.390000000
C    -4.302000000    -2.525000000    -3.275000000
O    -5.408000000    -2.859000000    -2.581000000
C    -3.624000000    -3.479000000    -4.026000000
H    -3.973000000    -4.508000000    -3.998000000
C    -2.543000000    -3.168000000    -4.841000000
O    -1.958000000    -4.177000000    -5.637000000
C    -0.601000000    -4.228000000    -5.682000000
C     0.261000000    -4.545000000    -4.629000000
H    -0.094000000    -4.618000000    -3.604000000
C    -0.126000000    -4.196000000    -6.962000000
H    -0.870000000    -3.910000000    -7.701000000
C     1.185000000    -4.476000000    -7.341000000
H     1.470000000    -4.518000000    -8.389000000
C     2.103000000    -4.674000000    -6.311000000
H     3.110000000    -5.015000000    -6.536000000
C     1.657000000    -4.751000000    -4.953000000
O     2.500000000    -5.133000000    -3.935000000
C     3.007000000    -4.232000000    -3.008000000
C     3.536000000    -4.776000000    -1.873000000
H     3.526000000    -5.861000000    -1.820000000
C     4.102000000    -3.987000000    -0.878000000
O     4.679000000    -4.644000000     0.159000000
C     5.363000000    -3.995000000     1.121000000
C     4.593000000    -3.669000000     2.212000000
H     3.649000000    -4.198000000     2.320000000
C     6.667000000    -3.501000000     1.003000000
H     7.198000000    -3.631000000     0.063000000
C     7.224000000    -2.673000000     1.974000000
H     8.163000000    -2.178000000     1.738000000
C     6.473000000    -2.504000000     3.165000000
H     6.818000000    -1.891000000     3.993000000
C     5.199000000    -3.037000000     3.277000000
O     4.446000000    -2.859000000     4.470000000
C     3.437000000    -1.938000000     4.524000000
C     2.433000000    -2.180000000     5.445000000
H     2.353000000    -3.188000000     5.843000000
C     1.346000000    -1.309000000     5.578000000
O     0.241000000    -1.738000000     6.305000000
C    -0.699000000    -0.857000000     6.743000000
C    -1.870000000    -0.799000000     6.111000000
H    -2.038000000    -1.411000000     5.228000000
C    -0.554000000    -0.200000000     7.926000000
H     0.411000000    -0.199000000     8.426000000
C    -1.560000000     0.581000000     8.451000000
H    -1.440000000     1.011000000     9.442000000
C    -2.832000000     0.646000000     7.809000000
H    -3.695000000     1.122000000     8.267000000
C    -2.975000000    -0.055000000     6.606000000
O    -4.208000000    -0.121000000     6.041000000
C    -4.474000000     0.193000000     4.689000000
C    -5.255000000    -0.630000000     3.905000000
H    -5.571000000    -1.535000000     4.416000000
C    -5.400000000    -0.538000000     2.524000000
O    -6.207000000    -1.394000000     1.861000000
C    -6.376000000    -1.194000000     0.493000000
C    -7.210000000    -0.199000000     0.037000000
H    -7.712000000     0.462000000     0.739000000
C    -7.345000000    -0.022000000    -1.338000000
H    -8.003000000     0.789000000    -1.638000000
C    -6.912000000    -1.023000000    -2.244000000
H    -7.040000000    -0.987000000    -3.322000000
C    -6.077000000    -2.041000000    -1.724000000
C    -5.802000000    -2.123000000    -0.372000000
H    -5.136000000    -2.916000000    -0.042000000
C     1.130000000    -2.266000000     1.586000000
H     2.025000000    -2.866000000     1.731000000
C     1.297000000    -1.130000000     0.810000000
H     2.233000000    -0.903000000     0.305000000
C     0.210000000    -0.278000000     0.640000000
H     0.242000000     0.610000000    -0.031000000
C    -0.998000000    -0.611000000     1.214000000
H    -1.895000000    -0.013000000     1.076000000
C    -1.045000000    -1.694000000     2.095000000
H    -1.995000000    -1.927000000     2.570000000
C    -0.016000000    -2.572000000     2.321000000
C    -0.180000000    -3.868000000     3.087000000
O    -1.220000000    -4.262000000     3.545000000
O     0.760000000    -4.659000000     3.177000000
O    -3.629000000    -3.386000000     4.811000000
H    -4.110000000    -4.191000000     4.620000000
H    -2.711000000    -3.616000000     4.667000000
O    -0.845000000    -6.774000000     1.764000000
H    -0.589000000    -5.998000000     2.263000000
H    -1.794000000    -6.826000000     1.873000000
O     4.365000000    -6.143000000     4.097000000
H     3.738000000    -6.094000000     3.375000000
H     3.827000000    -6.320000000     4.869000000
O    -4.102000000    -5.942000000    -1.004000000
H    -4.982000000    -5.580000000    -1.110000000
H    -3.690000000    -5.382000000    -0.347000000
O     1.442000000    -4.957000000     7.697000000
H     1.664000000    -5.282000000     6.825000000
H     1.835000000    -5.591000000     8.297000000
O    -1.268000000    -3.305000000    -0.782000000
H    -1.041000000    -4.218000000    -0.962000000
H    -0.650000000    -3.034000000    -0.104000000
O    -2.772000000    -4.286000000     1.142000000
H    -2.318000000    -4.063000000     1.955000000
H    -2.413000000    -3.681000000     0.493000000
O    -1.108000000    -4.830000000     6.078000000
H    -0.888000000    -4.767000000     5.149000000
H    -1.164000000    -3.921000000     6.374000000
O    -1.498000000    -5.044000000     9.058000000
H    -0.700000000    -5.011000000     9.586000000
H    -1.196000000    -5.290000000     8.183000000
O     1.222000000    -7.562000000     0.017000000
H     0.914000000    -8.295000000    -0.517000000
H     0.594000000    -7.511000000     0.738000000
O    -3.836000000    -3.155000000     7.930000000
H    -3.472000000    -2.919000000     7.077000000
H    -3.178000000    -3.731000000     8.320000000
O    -4.408000000    -6.214000000     2.187000000
H    -3.886000000    -5.504000000     1.811000000
H    -4.191000000    -6.202000000     3.119000000
O     1.771000000    -6.369000000     5.020000000
H     1.246000000    -5.729000000     4.540000000
H     1.695000000    -7.174000000     4.507000000
O     2.538000000    -6.275000000     2.228000000
H     2.416000000    -6.463000000     1.298000000
H     1.742000000    -5.809000000     2.485000000
O     2.383000000    -2.451000000     8.632000000
H     2.411000000    -2.916000000     9.468000000
H     1.840000000    -3.003000000     8.069000000
O    -3.975000000    -6.149000000     4.936000000
H    -4.593000000    -6.662000000     5.456000000
H    -3.191000000    -6.093000000     5.482000000
O    -0.339000000    -5.750000000    -1.304000000
H     0.217000000    -6.394000000    -0.865000000
H    -0.989000000    -6.274000000    -1.772000000
O    -0.206000000    -8.949000000     3.378000000
H    -0.755000000    -9.645000000     3.016000000
H    -0.222000000    -8.261000000     2.713000000
O    -0.889000000    -7.708000000     5.906000000
H    -0.628000000    -6.791000000     5.989000000
H    -0.951000000    -7.855000000     4.962000000
