215
-1421.26008
C     4.533000000    -2.142000000    -0.642000000
H     4.972000000    -1.482000000     0.101000000
C     4.011000000    -1.617000000    -1.848000000
C     3.544000000    -2.597000000    -2.845000000
H     3.106000000    -2.198000000    -3.757000000
C     3.746000000    -0.090000000    -1.921000000
O     4.708000000     0.675000000    -1.123000000
H     2.778000000     0.029000000    -1.414000000
O     3.685000000     0.422000000    -3.235000000
C     2.753000000     1.282000000    -3.642000000
C     1.668000000     0.695000000    -4.293000000
H     1.868000000    -0.299000000    -4.685000000
C     0.532000000     1.439000000    -4.495000000
O    -0.603000000     0.797000000    -4.944000000
C     0.414000000     2.746000000    -3.997000000
C    -0.872000000     3.601000000    -4.120000000
H    -0.614000000     4.639000000    -4.340000000
C    -1.875000000     3.419000000    -2.977000000
C    -1.890000000     4.327000000    -1.958000000
H    -1.113000000     5.084000000    -2.024000000
H    -1.356000000     3.423000000    -5.083000000
C     1.549000000     3.414000000    -3.525000000
H     1.568000000     4.480000000    -3.312000000
C     2.673000000     2.635000000    -3.264000000
C     3.800000000     3.237000000    -2.403000000
H     3.730000000     4.327000000    -2.400000000
H     4.781000000     2.875000000    -2.718000000
C     3.689000000     2.843000000    -0.952000000
C     3.191000000     3.828000000    -0.065000000
H     2.775000000     4.765000000    -0.426000000
C     4.115000000     1.665000000    -0.360000000
C     4.126000000     1.433000000     0.981000000
H     4.397000000     0.481000000     1.430000000
C     3.698000000     2.465000000     1.837000000
O     3.401000000     2.128000000     3.160000000
C     2.097000000     1.605000000     3.416000000
C     2.036000000     0.317000000     4.185000000
C     0.852000000    -0.127000000     4.731000000
H    -0.097000000     0.400000000     4.772000000
C     3.198000000    -0.432000000     4.361000000
H     4.121000000    -0.109000000     3.888000000
O     1.264000000     2.638000000     3.970000000
H     1.675000000     1.333000000     2.438000000
C     3.088000000     3.624000000     1.322000000
C     2.292000000     4.627000000     2.121000000
H     2.420000000     5.661000000     1.793000000
H     2.682000000     4.724000000     3.137000000
C     0.777000000     4.265000000     2.211000000
C    -0.087000000     4.834000000     1.330000000
H     0.216000000     5.522000000     0.545000000
C     0.286000000     3.391000000     3.214000000
C    -1.061000000     3.043000000     3.251000000
H    -1.377000000     2.301000000     3.979000000
C    -1.904000000     3.632000000     2.337000000
O    -3.249000000     3.232000000     2.402000000
C    -3.590000000     2.164000000     1.471000000
C    -4.256000000     0.922000000     2.091000000
C    -4.051000000     0.649000000     3.471000000
H    -3.304000000     1.242000000     3.992000000
C    -5.039000000     0.050000000     1.281000000
H    -5.238000000     0.422000000     0.279000000
O    -4.348000000     2.734000000     0.308000000
H    -2.684000000     1.762000000     0.994000000
C    -1.471000000     4.539000000     1.380000000
C    -2.521000000     5.085000000     0.375000000
H    -2.041000000     5.950000000    -0.087000000
H    -3.380000000     5.521000000     0.890000000
C    -2.651000000     4.109000000    -0.795000000
C    -3.558000000     3.000000000    -0.767000000
C    -3.694000000     2.190000000    -1.845000000
H    -4.379000000     1.347000000    -1.877000000
C    -2.746000000     2.367000000    -2.914000000
O    -2.628000000     1.362000000    -3.880000000
C    -1.495000000     0.399000000    -3.905000000
H    -0.972000000     0.437000000    -2.938000000
C    -2.012000000    -1.007000000    -4.063000000
C    -1.215000000    -1.903000000    -4.750000000
H    -0.292000000    -1.483000000    -5.141000000
C    -3.209000000    -1.460000000    -3.499000000
H    -3.760000000    -0.752000000    -2.884000000
C    -3.654000000    -2.732000000    -3.636000000
O    -4.765000000    -3.226000000    -2.987000000
C    -2.816000000    -3.607000000    -4.385000000
H    -3.123000000    -4.641000000    -4.518000000
C    -1.673000000    -3.191000000    -5.032000000
O    -0.998000000    -4.122000000    -5.795000000
C     0.359000000    -4.175000000    -5.819000000
C     1.156000000    -4.235000000    -4.611000000
H     0.611000000    -4.098000000    -3.680000000
C     0.978000000    -4.542000000    -7.001000000
H     0.317000000    -4.546000000    -7.864000000
C     2.359000000    -4.731000000    -7.122000000
H     2.882000000    -4.938000000    -8.053000000
C     3.086000000    -4.762000000    -5.844000000
H     4.122000000    -5.089000000    -5.862000000
C     2.444000000    -4.524000000    -4.657000000
O     3.190000000    -4.801000000    -3.569000000
C     3.566000000    -3.930000000    -2.606000000
C     4.199000000    -4.361000000    -1.422000000
H     4.266000000    -5.434000000    -1.262000000
C     4.717000000    -3.487000000    -0.446000000
O     5.383000000    -3.955000000     0.638000000
C     5.679000000    -3.200000000     1.725000000
C     4.872000000    -3.260000000     2.798000000
H     3.912000000    -3.769000000     2.814000000
C     6.914000000    -2.538000000     1.733000000
H     7.353000000    -2.372000000     0.753000000
C     7.256000000    -1.773000000     2.848000000
H     8.259000000    -1.354000000     2.868000000
C     6.462000000    -1.878000000     4.014000000
H     6.748000000    -1.358000000     4.925000000
C     5.252000000    -2.495000000     3.880000000
O     4.371000000    -2.475000000     4.922000000
C     3.196000000    -1.706000000     4.914000000
C     2.011000000    -2.193000000     5.408000000
H     1.839000000    -3.198000000     5.784000000
C     0.839000000    -1.360000000     5.408000000
O    -0.204000000    -1.832000000     6.133000000
C    -1.319000000    -1.100000000     6.574000000
C    -2.442000000    -1.185000000     5.770000000
H    -2.487000000    -1.885000000     4.939000000
C    -1.266000000    -0.148000000     7.602000000
H    -0.341000000    -0.026000000     8.159000000
C    -2.447000000     0.555000000     7.986000000
H    -2.539000000     1.218000000     8.843000000
C    -3.588000000     0.344000000     7.258000000
H    -4.502000000     0.764000000     7.669000000
C    -3.602000000    -0.459000000     6.146000000
O    -4.793000000    -0.529000000     5.381000000
C    -4.890000000    -0.337000000     3.986000000
C    -5.625000000    -1.258000000     3.224000000
H    -6.107000000    -2.100000000     3.714000000
C    -5.750000000    -0.987000000     1.886000000
O    -6.616000000    -1.807000000     1.160000000
C    -6.626000000    -1.724000000    -0.214000000
C    -7.738000000    -1.301000000    -0.877000000
H    -8.550000000    -0.886000000    -0.285000000
C    -7.813000000    -1.348000000    -2.248000000
H    -8.686000000    -0.939000000    -2.751000000
C    -6.787000000    -1.981000000    -2.969000000
H    -6.934000000    -2.117000000    -4.037000000
C    -5.673000000    -2.493000000    -2.324000000
C    -5.595000000    -2.370000000    -0.959000000
H    -4.835000000    -2.892000000    -0.384000000
C     1.103000000    -2.035000000     1.850000000
H     1.988000000    -2.518000000     2.255000000
C     1.288000000    -0.965000000     0.988000000
H     2.274000000    -0.647000000     0.662000000
C     0.189000000    -0.292000000     0.475000000
H     0.316000000     0.539000000    -0.157000000
C    -1.105000000    -0.679000000     0.839000000
H    -1.972000000    -0.236000000     0.355000000
C    -1.317000000    -1.699000000     1.804000000
H    -2.356000000    -1.904000000     2.048000000
C    -0.230000000    -2.471000000     2.260000000
C    -0.353000000    -3.713000000     3.075000000
O    -1.428000000    -4.100000000     3.462000000
O     0.585000000    -4.404000000     3.233000000
O    -3.447000000    -4.504000000     1.897000000
H    -3.146000000    -4.029000000     1.123000000
H    -2.833000000    -4.251000000     2.587000000
O    -1.822000000    -7.014000000     2.713000000
H    -1.574000000    -6.090000000     2.689000000
H    -0.991000000    -7.483000000     2.789000000
O    -0.547000000    -3.801000000     8.698000000
H    -0.332000000    -3.424000000     7.844000000
H    -1.062000000    -3.124000000     9.135000000
O    -4.222000000    -7.356000000     3.913000000
H    -4.167000000    -8.066000000     3.274000000
H    -3.411000000    -6.863000000     3.794000000
O     2.370000000    -7.441000000     5.301000000
H     2.647000000    -7.293000000     4.396000000
H     2.037000000    -6.593000000     5.592000000
O    -0.190000000    -7.367000000     8.113000000
H    -0.841000000    -6.844000000     8.580000000
H    -0.078000000    -6.918000000     7.275000000
O     5.129000000    -7.265000000     1.933000000
H     5.029000000    -7.619000000     1.049000000
H     4.234000000    -7.083000000     2.221000000
O    -4.126000000    -3.569000000     6.904000000
H    -3.703000000    -3.417000000     7.750000000
H    -4.874000000    -2.972000000     6.900000000
O    -0.020000000    -2.859000000    -0.984000000
H     0.609000000    -3.580000000    -1.005000000
H     0.249000000    -2.328000000    -0.235000000
O    -2.633000000    -3.745000000    -0.700000000
H    -1.780000000    -3.358000000    -0.898000000
H    -2.737000000    -4.439000000    -1.351000000
O     0.423000000    -5.454000000     5.790000000
H     0.676000000    -5.059000000     4.956000000
H    -0.511000000    -5.263000000     5.873000000
O     1.992000000    -8.060000000    -0.170000000
H     1.660000000    -8.754000000    -0.738000000
H     1.456000000    -7.296000000    -0.386000000
O    -2.433000000    -5.445000000     5.687000000
H    -2.155000000    -5.189000000     4.808000000
H    -2.884000000    -4.673000000     6.030000000
O    -3.850000000    -7.653000000     1.095000000
H    -2.973000000    -7.658000000     1.478000000
H    -4.105000000    -6.730000000     1.091000000
O     2.334000000    -6.672000000     2.343000000
H     2.024000000    -7.016000000     1.505000000
H     1.787000000    -5.903000000     2.503000000
O    -5.670000000    -4.859000000     3.400000000
H    -4.987000000    -4.708000000     2.747000000
H    -5.551000000    -5.772000000     3.664000000
O     0.005000000    -6.428000000    -0.542000000
H    -0.756000000    -6.013000000    -0.135000000
H    -0.248000000    -6.544000000    -1.458000000
O     3.179000000    -9.740000000     2.652000000
H     2.615000000    -9.988000000     3.385000000
H     2.855000000    -8.881000000     2.381000000
O    -3.104000000    -8.359000000     6.585000000
H    -3.749000000    -9.041000000     6.771000000
H    -3.380000000    -7.988000000     5.747000000
