215
-1448.02229
C     4.853000000    -0.677000000    -1.382000000
H     4.931000000    -0.152000000    -0.434000000
C     4.023000000    -0.136000000    -2.396000000
C     3.760000000    -0.982000000    -3.496000000
H     3.003000000    -0.621000000    -4.188000000
C     3.355000000     1.255000000    -2.181000000
O     4.199000000     2.052000000    -1.302000000
H     2.370000000     1.059000000    -1.732000000
O     3.204000000     1.839000000    -3.492000000
C     1.985000000     2.419000000    -3.613000000
C     0.960000000     1.821000000    -4.309000000
H     1.091000000     0.868000000    -4.815000000
C    -0.377000000     2.285000000    -4.155000000
O    -1.459000000     1.510000000    -4.596000000
C    -0.677000000     3.420000000    -3.396000000
C    -2.100000000     3.882000000    -3.113000000
H    -2.038000000     4.959000000    -2.943000000
C    -2.854000000     3.225000000    -1.929000000
C    -2.764000000     3.818000000    -0.729000000
H    -2.346000000     4.821000000    -0.737000000
H    -2.748000000     3.758000000    -3.983000000
C     0.355000000     4.060000000    -2.704000000
H     0.157000000     4.902000000    -2.045000000
C     1.689000000     3.573000000    -2.830000000
C     2.719000000     4.323000000    -2.009000000
H     2.452000000     5.382000000    -2.026000000
H     3.680000000     4.152000000    -2.499000000
C     2.858000000     3.829000000    -0.577000000
C     2.203000000     4.452000000     0.516000000
H     1.466000000     5.240000000     0.382000000
C     3.631000000     2.686000000    -0.228000000
C     3.752000000     2.141000000     1.030000000
H     4.298000000     1.210000000     1.161000000
C     3.000000000     2.737000000     2.080000000
O     3.113000000     2.137000000     3.307000000
C     1.994000000     1.332000000     3.609000000
C     2.503000000     0.053000000     4.316000000
C     1.546000000    -0.708000000     5.097000000
H     0.547000000    -0.330000000     5.298000000
C     3.715000000    -0.561000000     4.043000000
H     4.440000000     0.044000000     3.506000000
O     1.158000000     2.068000000     4.488000000
H     1.498000000     1.036000000     2.673000000
C     2.310000000     3.939000000     1.856000000
C     1.524000000     4.564000000     2.992000000
H     1.437000000     5.633000000     2.784000000
H     2.181000000     4.475000000     3.859000000
C     0.198000000     3.862000000     3.208000000
C    -0.946000000     4.327000000     2.473000000
H    -1.021000000     5.256000000     1.913000000
C     0.058000000     2.672000000     3.994000000
C    -1.122000000     1.947000000     3.991000000
H    -1.200000000     0.940000000     4.394000000
C    -2.226000000     2.433000000     3.318000000
O    -3.328000000     1.631000000     3.344000000
C    -3.633000000     0.830000000     2.187000000
C    -4.112000000    -0.612000000     2.433000000
C    -3.560000000    -1.284000000     3.509000000
H    -2.809000000    -0.865000000     4.174000000
C    -4.976000000    -1.261000000     1.564000000
H    -5.594000000    -0.695000000     0.872000000
O    -4.615000000     1.562000000     1.443000000
H    -2.702000000     0.714000000     1.614000000
C    -2.173000000     3.595000000     2.541000000
C    -3.329000000     4.130000000     1.660000000
H    -3.276000000     5.217000000     1.575000000
H    -4.234000000     3.951000000     2.244000000
C    -3.457000000     3.351000000     0.378000000
C    -4.101000000     2.112000000     0.239000000
C    -4.094000000     1.397000000    -0.911000000
H    -4.521000000     0.398000000    -0.898000000
C    -3.483000000     1.971000000    -2.074000000
O    -3.469000000     1.205000000    -3.225000000
C    -2.203000000     0.614000000    -3.621000000
H    -1.584000000     0.551000000    -2.714000000
C    -2.343000000    -0.820000000    -4.154000000
C    -1.455000000    -1.219000000    -5.129000000
H    -0.648000000    -0.640000000    -5.570000000
C    -3.262000000    -1.731000000    -3.618000000
H    -3.948000000    -1.320000000    -2.881000000
C    -3.217000000    -3.088000000    -4.068000000
O    -4.052000000    -3.960000000    -3.458000000
C    -2.322000000    -3.459000000    -5.080000000
H    -2.309000000    -4.519000000    -5.322000000
C    -1.533000000    -2.495000000    -5.644000000
O    -0.567000000    -2.915000000    -6.588000000
C     0.750000000    -2.541000000    -6.588000000
C     1.588000000    -3.006000000    -5.597000000
H     1.217000000    -3.571000000    -4.745000000
C     1.226000000    -1.799000000    -7.639000000
H     0.534000000    -1.501000000    -8.422000000
C     2.634000000    -1.570000000    -7.774000000
H     3.137000000    -1.084000000    -8.606000000
C     3.459000000    -1.940000000    -6.681000000
H     4.540000000    -1.842000000    -6.737000000
C     2.948000000    -2.746000000    -5.612000000
O     3.710000000    -3.153000000    -4.497000000
C     4.204000000    -2.308000000    -3.534000000
C     5.050000000    -2.796000000    -2.538000000
H     5.401000000    -3.824000000    -2.576000000
C     5.357000000    -1.979000000    -1.425000000
O     5.991000000    -2.538000000    -0.386000000
C     6.226000000    -1.858000000     0.779000000
C     5.644000000    -2.387000000     1.918000000
H     4.935000000    -3.211000000     1.932000000
C     7.194000000    -0.864000000     0.837000000
H     7.740000000    -0.595000000    -0.063000000
C     7.453000000    -0.199000000     2.049000000
H     8.145000000     0.632000000     2.154000000
C     6.907000000    -0.793000000     3.200000000
H     7.085000000    -0.293000000     4.148000000
C     6.028000000    -1.896000000     3.191000000
O     5.363000000    -2.279000000     4.339000000
C     4.105000000    -1.775000000     4.630000000
C     3.185000000    -2.508000000     5.342000000
H     3.318000000    -3.549000000     5.626000000
C     1.931000000    -1.947000000     5.601000000
O     1.053000000    -2.693000000     6.279000000
C    -0.276000000    -2.406000000     6.511000000
C    -1.273000000    -3.102000000     5.777000000
H    -0.917000000    -3.774000000     5.000000000
C    -0.676000000    -1.359000000     7.412000000
H    -0.044000000    -0.924000000     8.182000000
C    -2.063000000    -1.059000000     7.622000000
H    -2.411000000    -0.243000000     8.251000000
C    -2.961000000    -1.694000000     6.706000000
H    -4.023000000    -1.469000000     6.671000000
C    -2.591000000    -2.716000000     5.827000000
O    -3.431000000    -3.321000000     4.893000000
C    -3.910000000    -2.615000000     3.754000000
C    -4.745000000    -3.325000000     2.797000000
H    -5.110000000    -4.332000000     2.984000000
C    -5.199000000    -2.679000000     1.650000000
O    -6.209000000    -3.248000000     0.806000000
C    -6.275000000    -3.318000000    -0.564000000
C    -7.494000000    -3.190000000    -1.171000000
H    -8.409000000    -3.170000000    -0.585000000
C    -7.567000000    -3.271000000    -2.596000000
H    -8.544000000    -3.028000000    -3.007000000
C    -6.439000000    -3.547000000    -3.356000000
H    -6.511000000    -3.650000000    -4.436000000
C    -5.201000000    -3.614000000    -2.767000000
C    -5.128000000    -3.477000000    -1.348000000
H    -4.148000000    -3.574000000    -0.888000000
C     0.921000000    -2.139000000     1.447000000
H     1.677000000    -2.485000000     2.148000000
C     1.043000000    -0.885000000     0.820000000
H     1.905000000    -0.239000000     0.962000000
C    -0.065000000    -0.306000000     0.224000000
H     0.066000000     0.707000000    -0.066000000
C    -1.206000000    -1.056000000    -0.030000000
H    -2.070000000    -0.692000000    -0.579000000
C    -1.277000000    -2.344000000     0.495000000
H    -2.169000000    -2.955000000     0.391000000
C    -0.203000000    -2.906000000     1.236000000
C    -0.240000000    -4.246000000     1.808000000
O    -1.087000000    -4.990000000     1.445000000
O     0.674000000    -4.669000000     2.504000000
O    -2.554000000    -5.833000000    -0.758000000
H    -2.066000000    -5.799000000    -1.580000000
H    -1.921000000    -5.561000000    -0.093000000
O    -1.178000000    -8.089000000     1.314000000
H    -1.773000000    -8.567000000     0.736000000
H    -1.667000000    -7.305000000     1.563000000
O    -2.781000000    -8.429000000    -2.502000000
H    -3.575000000    -7.917000000    -2.658000000
H    -2.069000000    -7.793000000    -2.570000000
O    -1.797000000    -8.871000000     6.030000000
H    -1.599000000    -9.303000000     6.861000000
H    -0.947000000    -8.778000000     5.600000000
O     5.108000000    -6.375000000     1.120000000
H     4.595000000    -5.769000000     1.654000000
H     5.864000000    -6.595000000     1.665000000
O     1.074000000    -5.640000000     7.574000000
H     0.733000000    -5.609000000     6.680000000
H     2.021000000    -5.550000000     7.473000000
O     5.121000000    -5.573000000     5.151000000
H     5.474000000    -6.174000000     4.495000000
H     4.564000000    -4.974000000     4.653000000
O     0.313000000    -4.963000000    -1.227000000
H     0.328000000    -4.041000000    -0.970000000
H    -0.003000000    -5.423000000    -0.449000000
O    -0.814000000    -6.665000000    -2.911000000
H    -0.538000000    -6.524000000    -3.816000000
H    -0.250000000    -6.088000000    -2.396000000
O    -6.062000000    -8.239000000     1.211000000
H    -5.510000000    -9.011000000     1.086000000
H    -5.472000000    -7.498000000     1.074000000
O     3.422000000    -5.029000000     3.119000000
H     2.708000000    -4.548000000     2.701000000
H     2.990000000    -5.762000000     3.560000000
O     2.903000000    -6.997000000    -1.108000000
H     3.741000000    -6.741000000    -0.722000000
H     2.273000000    -6.910000000    -0.393000000
O    -4.800000000    -5.967000000     0.797000000
H    -4.098000000    -5.814000000     0.164000000
H    -4.404000000    -5.773000000     1.646000000
O    -2.887000000    -5.734000000     3.323000000
H    -2.200000000    -5.293000000     2.825000000
H    -2.913000000    -5.270000000     4.160000000
O     1.115000000    -6.682000000     0.908000000
H     0.354000000    -7.255000000     1.003000000
H     0.890000000    -5.900000000     1.412000000
O     0.456000000    -5.850000000     4.856000000
H     0.282000000    -6.752000000     4.587000000
H     0.575000000    -5.373000000     4.034000000
O    -2.378000000   -10.714000000     2.611000000
H    -2.123000000    -9.903000000     2.172000000
H    -3.127000000   -11.034000000     2.108000000
O     0.584000000    -8.775000000     4.488000000
H     0.328000000    -9.462000000     3.873000000
H     1.539000000    -8.743000000     4.427000000
O    -4.046000000    -6.940000000     6.031000000
H    -3.326000000    -7.539000000     6.227000000
H    -4.087000000    -6.919000000     5.075000000
