215
-1420.38346
C     5.045000000    -1.422000000    -1.006000000
H     5.564000000    -0.730000000    -0.348000000
C     4.137000000    -0.887000000    -1.875000000
C     3.433000000    -1.783000000    -2.694000000
H     2.800000000    -1.344000000    -3.461000000
C     3.745000000     0.612000000    -1.809000000
O     4.775000000     1.473000000    -1.287000000
H     2.837000000     0.678000000    -1.192000000
O     3.364000000     1.082000000    -3.133000000
C     2.288000000     1.905000000    -3.338000000
C     1.122000000     1.346000000    -3.927000000
H     1.231000000     0.434000000    -4.508000000
C    -0.046000000     2.000000000    -3.948000000
O    -1.122000000     1.339000000    -4.503000000
C    -0.102000000     3.316000000    -3.367000000
C    -1.371000000     4.134000000    -3.425000000
H    -1.057000000     5.178000000    -3.356000000
C    -2.307000000     3.618000000    -2.312000000
C    -2.270000000     4.300000000    -1.042000000
H    -1.515000000     5.065000000    -0.875000000
H    -1.827000000     4.085000000    -4.416000000
C     1.063000000     3.948000000    -2.858000000
H     1.008000000     4.925000000    -2.384000000
C     2.294000000     3.185000000    -2.790000000
C     3.427000000     3.859000000    -2.059000000
H     3.275000000     4.938000000    -1.984000000
H     4.407000000     3.725000000    -2.520000000
C     3.678000000     3.495000000    -0.617000000
C     3.161000000     4.285000000     0.359000000
H     2.646000000     5.200000000     0.078000000
C     4.410000000     2.349000000    -0.276000000
C     4.483000000     1.924000000     1.011000000
H     5.040000000     1.024000000     1.257000000
C     3.689000000     2.558000000     1.995000000
O     3.538000000     1.920000000     3.226000000
C     2.216000000     1.242000000     3.468000000
C     2.431000000    -0.153000000     3.984000000
C     1.287000000    -1.031000000     4.051000000
H     0.332000000    -0.554000000     3.846000000
C     3.729000000    -0.683000000     4.084000000
H     4.613000000    -0.193000000     3.683000000
O     1.299000000     2.058000000     4.177000000
H     1.823000000     1.186000000     2.442000000
C     3.039000000     3.774000000     1.612000000
C     2.064000000     4.544000000     2.626000000
H     1.957000000     5.558000000     2.237000000
H     2.588000000     4.427000000     3.578000000
C     0.628000000     3.847000000     2.683000000
C    -0.438000000     4.519000000     2.089000000
H    -0.197000000     5.426000000     1.540000000
C     0.382000000     2.763000000     3.554000000
C    -0.926000000     2.221000000     3.600000000
H    -1.170000000     1.328000000     4.169000000
C    -1.945000000     2.863000000     2.841000000
O    -3.234000000     2.361000000     2.905000000
C    -3.677000000     1.519000000     1.861000000
C    -4.359000000     0.226000000     2.281000000
C    -4.055000000    -0.484000000     3.490000000
H    -3.312000000     0.024000000     4.100000000
C    -5.322000000    -0.345000000     1.468000000
H    -5.496000000     0.035000000     0.465000000
O    -4.576000000     2.202000000     0.901000000
H    -2.771000000     1.167000000     1.347000000
C    -1.711000000     4.017000000     2.046000000
C    -2.928000000     4.656000000     1.335000000
H    -2.748000000     5.731000000     1.277000000
H    -3.863000000     4.640000000     1.900000000
C    -3.124000000     3.938000000     0.013000000
C    -3.940000000     2.855000000    -0.195000000
C    -3.908000000     2.092000000    -1.347000000
H    -4.550000000     1.215000000    -1.396000000
C    -3.237000000     2.508000000    -2.486000000
O    -3.227000000     1.708000000    -3.595000000
C    -2.114000000     0.760000000    -3.597000000
H    -1.686000000     0.679000000    -2.587000000
C    -2.516000000    -0.601000000    -3.989000000
C    -1.570000000    -1.425000000    -4.641000000
H    -0.623000000    -0.970000000    -4.920000000
C    -3.771000000    -1.112000000    -3.681000000
H    -4.567000000    -0.455000000    -3.340000000
C    -4.161000000    -2.422000000    -3.967000000
O    -5.403000000    -2.931000000    -3.483000000
C    -3.263000000    -3.253000000    -4.595000000
H    -3.520000000    -4.268000000    -4.885000000
C    -1.971000000    -2.726000000    -5.015000000
O    -1.154000000    -3.566000000    -5.695000000
C     0.232000000    -3.395000000    -5.722000000
C     1.027000000    -3.814000000    -4.638000000
H     0.597000000    -4.425000000    -3.848000000
C     0.792000000    -2.741000000    -6.862000000
H     0.073000000    -2.342000000    -7.572000000
C     2.184000000    -2.554000000    -6.903000000
H     2.618000000    -2.072000000    -7.775000000
C     2.943000000    -2.989000000    -5.817000000
H     3.993000000    -2.720000000    -5.740000000
C     2.385000000    -3.590000000    -4.664000000
O     3.100000000    -3.986000000    -3.561000000
C     3.749000000    -3.145000000    -2.711000000
C     4.712000000    -3.614000000    -1.930000000
H     4.953000000    -4.674000000    -1.940000000
C     5.365000000    -2.776000000    -1.036000000
O     6.240000000    -3.355000000    -0.141000000
C     6.565000000    -2.845000000     1.098000000
C     5.696000000    -3.046000000     2.205000000
H     4.767000000    -3.544000000     1.940000000
C     7.671000000    -1.988000000     1.245000000
H     8.336000000    -1.927000000     0.387000000
C     7.913000000    -1.346000000     2.402000000
H     8.681000000    -0.576000000     2.428000000
C     7.066000000    -1.502000000     3.505000000
H     7.337000000    -0.939000000     4.395000000
C     5.986000000    -2.370000000     3.385000000
O     5.175000000    -2.538000000     4.424000000
C     3.964000000    -1.963000000     4.421000000
C     2.816000000    -2.770000000     4.605000000
H     3.034000000    -3.820000000     4.784000000
C     1.517000000    -2.355000000     4.409000000
O     0.436000000    -3.221000000     4.542000000
C    -0.614000000    -2.859000000     5.298000000
C    -1.818000000    -2.765000000     4.637000000
H    -1.965000000    -2.954000000     3.576000000
C    -0.513000000    -2.772000000     6.650000000
H     0.455000000    -2.984000000     7.097000000
C    -1.592000000    -2.190000000     7.324000000
H    -1.511000000    -2.080000000     8.403000000
C    -2.838000000    -2.139000000     6.701000000
H    -3.703000000    -1.727000000     7.214000000
C    -2.928000000    -2.400000000     5.355000000
O    -4.221000000    -2.504000000     4.874000000
C    -4.556000000    -1.787000000     3.789000000
C    -5.605000000    -2.263000000     3.011000000
H    -6.097000000    -3.179000000     3.327000000
C    -5.896000000    -1.566000000     1.829000000
O    -6.936000000    -2.134000000     1.042000000
C    -7.076000000    -1.928000000    -0.342000000
C    -8.114000000    -1.147000000    -0.858000000
H    -8.824000000    -0.706000000    -0.163000000
C    -8.249000000    -0.920000000    -2.223000000
H    -8.938000000    -0.194000000    -2.648000000
C    -7.327000000    -1.452000000    -3.108000000
H    -7.497000000    -1.225000000    -4.158000000
C    -6.249000000    -2.265000000    -2.614000000
C    -6.119000000    -2.456000000    -1.234000000
H    -5.325000000    -3.116000000    -0.893000000
C     1.005000000    -2.463000000     0.703000000
H     1.815000000    -3.043000000     1.136000000
C     1.038000000    -1.037000000     0.618000000
H     1.830000000    -0.447000000     1.072000000
C     0.035000000    -0.298000000    -0.034000000
H     0.140000000     0.751000000    -0.099000000
C    -1.048000000    -1.028000000    -0.618000000
H    -1.909000000    -0.470000000    -0.976000000
C    -1.064000000    -2.445000000    -0.520000000
H    -1.948000000    -2.940000000    -0.914000000
C    -0.033000000    -3.212000000     0.118000000
C    -0.124000000    -4.701000000     0.186000000
O    -0.780000000    -5.213000000    -0.699000000
O     0.701000000    -5.296000000     0.849000000
O    -5.153000000    -8.755000000     1.309000000
H    -4.647000000    -9.567000000     1.308000000
H    -4.651000000    -8.159000000     0.754000000
O     4.330000000    -6.755000000    -3.735000000
H     3.483000000    -6.726000000    -4.180000000
H     4.852000000    -6.081000000    -4.171000000
O     3.216000000    -5.326000000    -0.029000000
H     3.204000000    -5.258000000    -0.984000000
H     2.338000000    -5.055000000     0.241000000
O     0.391000000    -7.888000000     1.046000000
H     1.213000000    -8.326000000     0.824000000
H     0.571000000    -6.958000000     0.908000000
O     1.678000000    -7.789000000    -2.770000000
H     1.025000000    -7.723000000    -2.073000000
H     1.413000000    -7.130000000    -3.410000000
O    -3.885000000    -6.211000000    -3.010000000
H    -4.059000000    -5.907000000    -2.119000000
H    -4.663000000    -5.956000000    -3.506000000
O    -0.562000000    -6.489000000     5.467000000
H    -1.027000000    -7.215000000     5.883000000
H    -0.950000000    -5.704000000     5.853000000
O    -1.127000000    -6.105000000    -3.158000000
H    -2.059000000    -6.253000000    -2.996000000
H    -0.809000000    -5.683000000    -2.360000000
O     4.081000000    -5.904000000     2.569000000
H     3.204000000    -5.873000000     2.951000000
H     3.934000000    -5.831000000     1.625000000
O    -1.347000000    -8.692000000     2.959000000
H    -1.964000000    -7.961000000     2.948000000
H    -0.770000000    -8.530000000     2.212000000
O    -4.443000000    -5.574000000    -0.198000000
H    -3.625000000    -6.059000000    -0.304000000
H    -4.600000000    -5.573000000     0.746000000
O    -2.509000000    -7.456000000    -0.420000000
H    -2.003000000    -6.779000000    -0.870000000
H    -2.000000000    -8.257000000    -0.544000000
O    -1.881000000    -6.096000000     2.580000000
H    -1.528000000    -5.902000000     3.449000000
H    -1.200000000    -5.803000000     1.974000000
O     2.826000000    -9.391000000    -0.708000000
H     2.794000000   -10.256000000    -1.118000000
H     2.430000000    -8.806000000    -1.354000000
O     2.527000000    -8.283000000     4.366000000
H     2.204000000    -7.434000000     4.063000000
H     2.712000000    -8.151000000     5.296000000
O     1.573000000    -5.984000000     3.280000000
H     0.773000000    -6.143000000     3.780000000
H     1.266000000    -5.701000000     2.419000000
O    -1.116000000    -9.679000000    -0.697000000
H    -1.057000000   -10.632000000    -0.626000000
H    -0.572000000    -9.351000000     0.019000000
O    -4.683000000    -5.396000000     2.315000000
H    -4.714000000    -4.724000000     2.996000000
H    -3.826000000    -5.808000000     2.424000000
O    -1.210000000    -6.972000000    -5.657000000
H    -1.427000000    -7.874000000    -5.422000000
H    -1.036000000    -6.541000000    -4.821000000
