215
-1447.90183
C     4.793000000    -1.807000000    -0.919000000
H     4.786000000    -1.566000000     0.141000000
C     4.553000000    -0.810000000    -1.893000000
C     4.525000000    -1.181000000    -3.209000000
H     4.347000000    -0.438000000    -3.983000000
C     4.048000000     0.613000000    -1.486000000
O     4.714000000     1.037000000    -0.325000000
H     2.986000000     0.410000000    -1.283000000
O     4.167000000     1.585000000    -2.592000000
C     3.116000000     2.501000000    -2.768000000
C     2.142000000     2.201000000    -3.745000000
H     2.222000000     1.353000000    -4.421000000
C     0.965000000     2.980000000    -3.848000000
O    -0.067000000     2.339000000    -4.534000000
C     0.783000000     4.013000000    -2.932000000
C    -0.501000000     4.769000000    -2.875000000
H    -0.347000000     5.802000000    -2.556000000
C    -1.523000000     4.160000000    -1.861000000
C    -1.796000000     4.703000000    -0.623000000
H    -1.183000000     5.573000000    -0.400000000
H    -0.974000000     4.809000000    -3.859000000
C     1.774000000     4.283000000    -2.007000000
H     1.656000000     5.193000000    -1.424000000
C     2.881000000     3.501000000    -1.842000000
C     3.949000000     3.759000000    -0.770000000
H     3.987000000     4.834000000    -0.584000000
H     4.966000000     3.591000000    -1.129000000
C     3.619000000     3.044000000     0.491000000
C     2.994000000     3.697000000     1.581000000
H     2.538000000     4.654000000     1.342000000
C     4.115000000     1.736000000     0.689000000
C     3.983000000     1.044000000     1.944000000
H     4.302000000     0.015000000     2.089000000
C     3.278000000     1.668000000     2.993000000
O     2.847000000     0.996000000     4.078000000
C     1.490000000     0.542000000     4.084000000
C     1.547000000    -0.930000000     4.597000000
C     0.503000000    -1.402000000     5.264000000
H    -0.350000000    -0.772000000     5.504000000
C     2.626000000    -1.816000000     4.183000000
H     3.362000000    -1.383000000     3.511000000
O     0.693000000     1.435000000     4.837000000
H     1.009000000     0.605000000     3.096000000
C     2.842000000     3.034000000     2.791000000
C     1.905000000     3.691000000     3.799000000
H     2.023000000     4.776000000     3.841000000
H     2.141000000     3.369000000     4.815000000
C     0.454000000     3.420000000     3.549000000
C    -0.344000000     4.188000000     2.700000000
H    -0.007000000     5.180000000     2.408000000
C    -0.073000000     2.298000000     4.131000000
C    -1.371000000     1.903000000     4.004000000
H    -1.841000000     1.066000000     4.514000000
C    -2.192000000     2.662000000     3.169000000
O    -3.489000000     2.134000000     2.951000000
C    -3.666000000     1.429000000     1.710000000
C    -4.490000000     0.101000000     1.756000000
C    -4.300000000    -0.868000000     2.839000000
H    -3.758000000    -0.442000000     3.680000000
C    -5.140000000    -0.376000000     0.604000000
H    -5.208000000     0.267000000    -0.270000000
O    -4.258000000     2.309000000     0.743000000
H    -2.663000000     1.239000000     1.301000000
C    -1.704000000     3.850000000     2.530000000
C    -2.630000000     4.635000000     1.648000000
H    -2.372000000     5.696000000     1.646000000
H    -3.576000000     4.538000000     2.184000000
C    -2.652000000     4.092000000     0.246000000
C    -3.402000000     2.964000000    -0.095000000
C    -3.126000000     2.406000000    -1.361000000
H    -3.681000000     1.598000000    -1.831000000
C    -2.224000000     3.058000000    -2.196000000
O    -2.145000000     2.585000000    -3.497000000
C    -1.048000000     1.690000000    -3.736000000
H    -0.683000000     1.364000000    -2.750000000
C    -1.551000000     0.392000000    -4.430000000
C    -0.647000000    -0.690000000    -4.535000000
H     0.369000000    -0.477000000    -4.212000000
C    -2.892000000     0.169000000    -4.688000000
H    -3.637000000     0.945000000    -4.530000000
C    -3.324000000    -1.146000000    -5.089000000
O    -4.613000000    -1.414000000    -5.355000000
C    -2.421000000    -2.123000000    -5.415000000
H    -2.742000000    -3.115000000    -5.722000000
C    -1.070000000    -1.953000000    -5.010000000
O    -0.202000000    -2.890000000    -5.184000000
C     0.991000000    -2.778000000    -5.819000000
C     2.099000000    -2.984000000    -5.122000000
H     1.924000000    -3.227000000    -4.077000000
C     1.099000000    -2.574000000    -7.165000000
H     0.157000000    -2.496000000    -7.704000000
C     2.318000000    -2.381000000    -7.777000000
H     2.417000000    -2.075000000    -8.816000000
C     3.527000000    -2.565000000    -7.000000000
H     4.512000000    -2.392000000    -7.426000000
C     3.342000000    -2.883000000    -5.669000000
O     4.468000000    -2.965000000    -4.921000000
C     4.611000000    -2.506000000    -3.571000000
C     4.759000000    -3.488000000    -2.655000000
H     4.846000000    -4.521000000    -2.982000000
C     4.889000000    -3.129000000    -1.261000000
O     5.066000000    -4.158000000    -0.304000000
C     5.303000000    -3.858000000     1.005000000
C     4.377000000    -4.206000000     2.009000000
H     3.477000000    -4.765000000     1.766000000
C     6.428000000    -3.157000000     1.432000000
H     7.189000000    -2.857000000     0.716000000
C     6.550000000    -2.653000000     2.759000000
H     7.452000000    -2.121000000     3.052000000
C     5.569000000    -2.905000000     3.708000000
H     5.613000000    -2.553000000     4.736000000
C     4.501000000    -3.719000000     3.332000000
O     3.514000000    -4.019000000     4.265000000
C     2.563000000    -3.176000000     4.645000000
C     1.504000000    -3.575000000     5.422000000
H     1.286000000    -4.584000000     5.764000000
C     0.461000000    -2.732000000     5.701000000
O    -0.656000000    -3.290000000     6.392000000
C    -1.904000000    -2.875000000     6.214000000
C    -2.503000000    -3.087000000     5.008000000
H    -1.959000000    -3.456000000     4.142000000
C    -2.724000000    -2.477000000     7.322000000
H    -2.311000000    -2.366000000     8.322000000
C    -4.086000000    -2.194000000     7.177000000
H    -4.735000000    -1.823000000     7.966000000
C    -4.659000000    -2.384000000     5.880000000
H    -5.698000000    -2.097000000     5.738000000
C    -3.859000000    -2.861000000     4.829000000
O    -4.375000000    -3.154000000     3.589000000
C    -4.743000000    -2.169000000     2.698000000
C    -5.341000000    -2.593000000     1.502000000
H    -5.611000000    -3.625000000     1.295000000
C    -5.564000000    -1.678000000     0.447000000
O    -6.072000000    -2.178000000    -0.772000000
C    -6.176000000    -1.516000000    -2.007000000
C    -7.041000000    -0.417000000    -2.096000000
H    -7.766000000    -0.222000000    -1.310000000
C    -7.161000000     0.158000000    -3.314000000
H    -7.923000000     0.922000000    -3.448000000
C    -6.325000000    -0.174000000    -4.379000000
H    -6.373000000     0.355000000    -5.328000000
C    -5.475000000    -1.259000000    -4.292000000
C    -5.307000000    -1.846000000    -3.013000000
H    -4.579000000    -2.643000000    -2.881000000
C     0.142000000    -2.837000000    -1.095000000
H     0.752000000    -3.646000000    -1.488000000
C     0.734000000    -1.688000000    -0.640000000
H     1.812000000    -1.597000000    -0.530000000
C    -0.208000000    -0.702000000    -0.297000000
H     0.119000000     0.194000000     0.224000000
C    -1.493000000    -0.784000000    -0.548000000
H    -2.185000000     0.027000000    -0.333000000
C    -2.010000000    -1.896000000    -1.183000000
H    -3.016000000    -1.790000000    -1.579000000
C    -1.180000000    -2.954000000    -1.429000000
C    -1.654000000    -4.088000000    -2.278000000
O    -2.820000000    -4.323000000    -2.222000000
O    -0.878000000    -4.801000000    -2.908000000
O    -2.565000000    -9.430000000    -2.220000000
H    -2.091000000   -10.213000000    -2.500000000
H    -1.923000000    -8.723000000    -2.292000000
O    -0.069000000    -5.770000000     0.546000000
H     0.351000000    -6.348000000     1.182000000
H     0.499000000    -5.809000000    -0.224000000
O     2.433000000    -5.818000000    -0.928000000
H     3.155000000    -5.225000000    -0.721000000
H     2.758000000    -6.685000000    -0.685000000
O     1.375000000    -6.000000000    -3.913000000
H     1.402000000    -6.293000000    -3.002000000
H     0.553000000    -5.514000000    -3.983000000
O     0.057000000    -6.151000000    -6.405000000
H     0.046000000    -5.633000000    -7.209000000
H     0.863000000    -5.888000000    -5.961000000
O    -5.045000000    -4.972000000    -3.524000000
H    -4.159000000    -4.752000000    -3.236000000
H    -5.587000000    -4.856000000    -2.744000000
O    -7.120000000    -4.141000000    -5.167000000
H    -6.270000000    -4.207000000    -4.731000000
H    -7.332000000    -5.040000000    -5.416000000
O    -2.310000000    -5.420000000    -5.155000000
H    -1.635000000    -5.936000000    -5.597000000
H    -1.870000000    -5.056000000    -4.388000000
O     0.071000000    -3.199000000     2.309000000
H    -0.539000000    -3.285000000     1.576000000
H     0.888000000    -2.902000000     1.907000000
O    -0.341000000    -8.662000000    -4.524000000
H    -1.182000000    -8.683000000    -4.980000000
H     0.208000000    -8.089000000    -5.060000000
O    -2.922000000    -8.675000000    -5.631000000
H    -3.533000000    -8.999000000    -6.293000000
H    -3.437000000    -8.056000000    -5.113000000
O    -2.661000000    -5.183000000     0.264000000
H    -2.790000000    -4.411000000    -0.288000000
H    -1.753000000    -5.441000000     0.106000000
O    -1.495000000    -8.399000000     1.211000000
H    -1.811000000    -8.872000000     0.441000000
H    -1.689000000    -7.480000000     1.024000000
O    -4.207000000    -8.961000000    -0.183000000
H    -3.588000000    -9.022000000    -0.911000000
H    -4.644000000    -8.119000000    -0.310000000
O    -3.946000000    -5.839000000     2.585000000
H    -3.749000000    -5.779000000     1.650000000
H    -4.267000000    -4.968000000     2.818000000
O    -4.125000000    -5.215000000    -7.188000000
H    -3.580000000    -5.202000000    -6.400000000
H    -4.704000000    -5.967000000    -7.066000000
O    -0.952000000    -7.425000000    -2.043000000
H    -0.382000000    -7.751000000    -2.740000000
H    -1.214000000    -6.552000000    -2.337000000
O    -4.405000000    -7.769000000    -3.368000000
H    -4.180000000    -6.865000000    -3.148000000
H    -3.734000000    -8.296000000    -2.935000000
O    -4.799000000    -6.391000000    -0.599000000
H    -5.603000000    -5.872000000    -0.562000000
H    -4.095000000    -5.749000000    -0.507000000
