215
-1442.50325
C     4.972000000    -1.541000000    -0.658000000
H     5.220000000    -0.986000000     0.243000000
C     4.443000000    -0.818000000    -1.780000000
C     4.143000000    -1.539000000    -2.971000000
H     3.697000000    -1.019000000    -3.815000000
C     3.999000000     0.589000000    -1.587000000
O     4.770000000     1.287000000    -0.632000000
H     2.977000000     0.545000000    -1.180000000
O     3.898000000     1.255000000    -2.805000000
C     2.838000000     2.017000000    -2.981000000
C     1.826000000     1.535000000    -3.808000000
H     1.884000000     0.617000000    -4.387000000
C     0.674000000     2.302000000    -3.966000000
O    -0.353000000     1.824000000    -4.742000000
C     0.487000000     3.507000000    -3.297000000
C    -0.740000000     4.388000000    -3.312000000
H    -0.515000000     5.419000000    -3.031000000
C    -1.827000000     3.889000000    -2.397000000
C    -1.878000000     4.480000000    -1.140000000
H    -1.360000000     5.413000000    -0.936000000
H    -1.213000000     4.526000000    -4.287000000
C     1.495000000     3.977000000    -2.536000000
H     1.361000000     4.945000000    -2.061000000
C     2.691000000     3.276000000    -2.336000000
C     3.685000000     3.809000000    -1.376000000
H     3.623000000     4.899000000    -1.342000000
H     4.717000000     3.629000000    -1.687000000
C     3.570000000     3.234000000     0.014000000
C     2.732000000     3.835000000     0.919000000
H     2.265000000     4.780000000     0.651000000
C     4.161000000     2.020000000     0.339000000
C     3.906000000     1.315000000     1.463000000
H     4.341000000     0.337000000     1.649000000
C     3.091000000     1.903000000     2.401000000
O     2.825000000     1.249000000     3.545000000
C     1.508000000     0.698000000     3.770000000
C     1.648000000    -0.702000000     4.364000000
C     0.562000000    -1.369000000     4.954000000
H    -0.453000000    -0.986000000     4.889000000
C     2.896000000    -1.286000000     4.448000000
H     3.767000000    -0.829000000     3.985000000
O     0.726000000     1.624000000     4.546000000
H     1.029000000     0.550000000     2.791000000
C     2.512000000     3.206000000     2.146000000
C     1.728000000     3.932000000     3.169000000
H     1.928000000     4.991000000     2.992000000
H     2.087000000     3.717000000     4.177000000
C     0.244000000     3.543000000     3.134000000
C    -0.639000000     4.233000000     2.393000000
H    -0.291000000     5.090000000     1.822000000
C    -0.122000000     2.406000000     3.844000000
C    -1.443000000     1.962000000     3.770000000
H    -1.706000000     1.058000000     4.314000000
C    -2.302000000     2.624000000     2.930000000
O    -3.496000000     2.040000000     2.750000000
C    -3.580000000     1.331000000     1.469000000
C    -4.229000000    -0.022000000     1.724000000
C    -4.033000000    -0.832000000     2.845000000
H    -3.252000000    -0.600000000     3.565000000
C    -5.047000000    -0.571000000     0.762000000
H    -5.198000000    -0.026000000    -0.166000000
O    -4.290000000     2.152000000     0.490000000
H    -2.626000000     1.105000000     0.971000000
C    -1.942000000     3.780000000     2.247000000
C    -2.801000000     4.458000000     1.204000000
H    -2.471000000     5.498000000     1.146000000
H    -3.772000000     4.437000000     1.703000000
C    -2.727000000     3.930000000    -0.186000000
C    -3.603000000     2.894000000    -0.517000000
C    -3.760000000     2.516000000    -1.866000000
H    -4.434000000     1.685000000    -2.061000000
C    -2.740000000     2.908000000    -2.775000000
O    -2.625000000     2.179000000    -3.916000000
C    -1.531000000     1.307000000    -4.055000000
H    -1.135000000     1.063000000    -3.058000000
C    -1.887000000    -0.026000000    -4.591000000
C    -0.872000000    -0.944000000    -4.996000000
H     0.170000000    -0.640000000    -5.057000000
C    -3.204000000    -0.422000000    -4.464000000
H    -3.959000000     0.194000000    -3.982000000
C    -3.555000000    -1.742000000    -4.896000000
O    -4.868000000    -2.174000000    -4.811000000
C    -2.654000000    -2.619000000    -5.458000000
H    -2.896000000    -3.645000000    -5.723000000
C    -1.269000000    -2.242000000    -5.381000000
O    -0.299000000    -3.103000000    -5.816000000
C     1.022000000    -2.817000000    -5.856000000
C     1.919000000    -3.427000000    -4.981000000
H     1.577000000    -4.029000000    -4.143000000
C     1.500000000    -2.077000000    -6.949000000
H     0.909000000    -1.499000000    -7.655000000
C     2.841000000    -1.824000000    -7.107000000
H     3.280000000    -1.193000000    -7.876000000
C     3.712000000    -2.295000000    -6.175000000
H     4.788000000    -2.142000000    -6.216000000
C     3.262000000    -3.166000000    -5.148000000
O     4.174000000    -3.536000000    -4.223000000
C     4.488000000    -2.898000000    -3.055000000
C     5.098000000    -3.530000000    -1.989000000
H     5.202000000    -4.612000000    -1.984000000
C     5.302000000    -2.897000000    -0.778000000
O     5.573000000    -3.630000000     0.347000000
C     5.822000000    -3.102000000     1.600000000
C     5.017000000    -3.497000000     2.630000000
H     4.278000000    -4.287000000     2.520000000
C     6.936000000    -2.313000000     1.775000000
H     7.619000000    -2.081000000     0.962000000
C     7.247000000    -1.886000000     3.118000000
H     8.094000000    -1.273000000     3.415000000
C     6.319000000    -2.097000000     4.132000000
H     6.353000000    -1.586000000     5.091000000
C     5.259000000    -2.973000000     3.899000000
O     4.283000000    -3.181000000     4.902000000
C     3.095000000    -2.547000000     5.049000000
C     2.080000000    -3.127000000     5.745000000
H     2.285000000    -4.064000000     6.257000000
C     0.765000000    -2.519000000     5.752000000
O    -0.310000000    -3.080000000     6.411000000
C    -1.588000000    -2.705000000     6.323000000
C    -2.423000000    -2.994000000     5.234000000
H    -2.118000000    -3.714000000     4.480000000
C    -2.080000000    -1.972000000     7.404000000
H    -1.504000000    -1.858000000     8.318000000
C    -3.393000000    -1.508000000     7.375000000
H    -3.719000000    -0.939000000     8.241000000
C    -4.173000000    -1.762000000     6.231000000
H    -5.224000000    -1.498000000     6.145000000
C    -3.692000000    -2.526000000     5.205000000
O    -4.483000000    -2.903000000     4.102000000
C    -4.727000000    -2.063000000     3.053000000
C    -5.510000000    -2.552000000     2.054000000
H    -5.949000000    -3.541000000     2.165000000
C    -5.746000000    -1.747000000     0.935000000
O    -6.320000000    -2.392000000    -0.143000000
C    -6.428000000    -1.874000000    -1.416000000
C    -7.466000000    -1.022000000    -1.809000000
H    -8.182000000    -0.615000000    -1.099000000
C    -7.793000000    -0.700000000    -3.137000000
H    -8.641000000    -0.047000000    -3.330000000
C    -6.912000000    -1.165000000    -4.093000000
H    -7.147000000    -0.943000000    -5.131000000
C    -5.744000000    -1.844000000    -3.751000000
C    -5.609000000    -2.297000000    -2.457000000
H    -4.768000000    -2.913000000    -2.150000000
C     0.537000000    -3.010000000    -1.479000000
H     1.314000000    -3.764000000    -1.380000000
C     0.825000000    -1.784000000    -0.855000000
H     1.851000000    -1.560000000    -0.575000000
C    -0.167000000    -0.801000000    -0.828000000
H     0.017000000     0.245000000    -0.640000000
C    -1.389000000    -1.060000000    -1.351000000
H    -2.089000000    -0.233000000    -1.438000000
C    -1.643000000    -2.240000000    -1.965000000
H    -2.628000000    -2.405000000    -2.395000000
C    -0.705000000    -3.257000000    -2.034000000
C    -1.066000000    -4.515000000    -2.787000000
O    -2.274000000    -4.793000000    -2.906000000
O    -0.150000000    -5.313000000    -3.030000000
O    -3.900000000   -10.044000000    -3.333000000
H    -3.269000000    -9.352000000    -3.532000000
H    -4.111000000    -9.916000000    -2.408000000
O    -0.237000000    -6.867000000     0.418000000
H     0.225000000    -7.705000000     0.439000000
H    -1.102000000    -7.079000000     0.068000000
O     1.886000000    -4.912000000     1.194000000
H     1.621000000    -3.992000000     1.178000000
H     1.092000000    -5.395000000     0.968000000
O     1.528000000    -8.222000000    -5.694000000
H     0.741000000    -7.678000000    -5.714000000
H     1.632000000    -8.459000000    -4.773000000
O     1.203000000    -7.601000000    -2.527000000
H     1.916000000    -7.151000000    -2.979000000
H     0.544000000    -6.921000000    -2.385000000
O    -0.625000000    -5.913000000     3.276000000
H    -0.033000000    -6.442000000     2.741000000
H    -1.055000000    -5.330000000     2.651000000
O    -0.021000000    -5.701000000    -5.760000000
H    -0.102000000    -4.762000000    -5.927000000
H     0.043000000    -5.771000000    -4.807000000
O    -4.622000000    -5.573000000    -4.067000000
H    -3.821000000    -5.242000000    -3.660000000
H    -4.379000000    -5.732000000    -4.979000000
O    -4.055000000    -6.345000000    -6.668000000
H    -3.470000000    -6.483000000    -7.413000000
H    -4.080000000    -7.192000000    -6.223000000
O    -0.397000000   -10.577000000    -2.938000000
H     0.506000000   -10.799000000    -2.713000000
H    -0.611000000    -9.838000000    -2.369000000
O    -1.501000000    -5.463000000    -8.263000000
H    -0.705000000    -5.728000000    -8.723000000
H    -1.326000000    -5.666000000    -7.344000000
O    -1.785000000    -3.417000000     1.974000000
H    -2.381000000    -2.740000000     2.293000000
H    -1.914000000    -3.423000000     1.026000000
O    -2.874000000    -9.353000000    -5.941000000
H    -2.284000000   -10.084000000    -6.124000000
H    -2.438000000    -8.862000000    -5.245000000
O    -2.685000000    -5.046000000    -0.292000000
H    -2.703000000    -4.689000000    -1.180000000
H    -2.566000000    -5.988000000    -0.415000000
O    -2.895000000    -7.777000000     0.011000000
H    -2.770000000    -8.315000000     0.793000000
H    -3.703000000    -8.108000000    -0.382000000
O     3.644000000    -6.578000000    -4.397000000
H     3.091000000    -6.355000000    -5.145000000
H     4.302000000    -5.884000000    -4.369000000
O    -2.022000000    -7.942000000    -3.420000000
H    -2.168000000    -6.997000000    -3.445000000
H    -1.104000000    -8.037000000    -3.168000000
O    -5.632000000    -5.866000000     0.246000000
H    -6.108000000    -5.095000000    -0.061000000
H    -4.709000000    -5.640000000     0.129000000
O    -5.893000000    -7.595000000    -2.462000000
H    -5.285000000    -7.153000000    -3.054000000
H    -6.741000000    -7.188000000    -2.642000000
