215
-1479.00958
C     5.195000000    -1.268000000    -1.209000000
H     5.264000000    -0.912000000    -0.184000000
C     4.567000000    -0.540000000    -2.244000000
C     4.392000000    -1.152000000    -3.502000000
H     3.999000000    -0.567000000    -4.330000000
C     3.935000000     0.781000000    -1.895000000
O     4.677000000     1.432000000    -0.836000000
H     2.923000000     0.452000000    -1.616000000
O     3.802000000     1.622000000    -3.010000000
C     2.610000000     2.250000000    -3.211000000
C     1.659000000     1.630000000    -3.998000000
H     1.886000000     0.667000000    -4.449000000
C     0.383000000     2.229000000    -4.099000000
O    -0.641000000     1.434000000    -4.637000000
C     0.158000000     3.454000000    -3.407000000
C    -1.247000000     4.076000000    -3.494000000
H    -1.187000000     5.159000000    -3.362000000
C    -2.161000000     3.613000000    -2.383000000
C    -2.107000000     4.216000000    -1.123000000
H    -1.332000000     4.951000000    -0.923000000
H    -1.835000000     3.872000000    -4.391000000
C     1.159000000     4.051000000    -2.634000000
H     0.949000000     4.934000000    -2.035000000
C     2.411000000     3.407000000    -2.504000000
C     3.521000000     4.039000000    -1.691000000
H     3.411000000     5.124000000    -1.626000000
H     4.483000000     3.818000000    -2.157000000
C     3.461000000     3.428000000    -0.255000000
C     2.702000000     4.148000000     0.686000000
H     2.043000000     4.963000000     0.398000000
C     4.070000000     2.236000000     0.099000000
C     4.089000000     1.802000000     1.434000000
H     4.628000000     0.913000000     1.751000000
C     3.336000000     2.453000000     2.425000000
O     3.173000000     1.790000000     3.573000000
C     1.861000000     1.171000000     3.673000000
C     1.922000000    -0.183000000     4.326000000
C     1.081000000    -0.695000000     5.386000000
H     0.352000000    -0.020000000     5.827000000
C     2.827000000    -1.116000000     3.743000000
H     3.430000000    -0.880000000     2.870000000
O     0.970000000     1.929000000     4.431000000
H     1.457000000     1.044000000     2.657000000
C     2.655000000     3.625000000     2.022000000
C     1.691000000     4.402000000     2.979000000
H     1.703000000     5.492000000     2.912000000
H     2.108000000     4.354000000     3.987000000
C     0.258000000     3.836000000     3.002000000
C    -0.760000000     4.438000000     2.291000000
H    -0.514000000     5.319000000     1.704000000
C     0.042000000     2.703000000     3.787000000
C    -1.302000000     2.285000000     3.862000000
H    -1.550000000     1.379000000     4.408000000
C    -2.365000000     2.830000000     3.103000000
O    -3.576000000     2.154000000     2.961000000
C    -3.710000000     1.360000000     1.750000000
C    -4.459000000     0.087000000     1.988000000
C    -4.014000000    -0.671000000     3.083000000
H    -3.294000000    -0.121000000     3.684000000
C    -5.395000000    -0.462000000     1.082000000
H    -5.639000000     0.131000000     0.204000000
O    -4.477000000     2.107000000     0.817000000
H    -2.731000000     1.016000000     1.385000000
C    -2.034000000     3.935000000     2.308000000
C    -2.998000000     4.558000000     1.260000000
H    -2.786000000     5.609000000     1.055000000
H    -4.034000000     4.537000000     1.607000000
C    -2.953000000     3.771000000    -0.037000000
C    -3.728000000     2.602000000    -0.218000000
C    -3.626000000     1.965000000    -1.460000000
H    -4.257000000     1.085000000    -1.553000000
C    -2.906000000     2.458000000    -2.513000000
O    -2.763000000     1.667000000    -3.635000000
C    -1.508000000     0.882000000    -3.614000000
H    -1.039000000     0.962000000    -2.623000000
C    -1.805000000    -0.647000000    -3.828000000
C    -0.749000000    -1.506000000    -4.133000000
H     0.221000000    -1.026000000    -4.234000000
C    -3.103000000    -1.113000000    -3.672000000
H    -3.910000000    -0.452000000    -3.365000000
C    -3.354000000    -2.483000000    -3.812000000
O    -4.599000000    -3.043000000    -3.712000000
C    -2.320000000    -3.376000000    -4.094000000
H    -2.558000000    -4.393000000    -4.394000000
C    -0.998000000    -2.841000000    -4.287000000
O    -0.058000000    -3.827000000    -4.660000000
C     1.038000000    -3.478000000    -5.395000000
C     2.275000000    -3.508000000    -4.770000000
H     2.454000000    -3.916000000    -3.779000000
C     0.930000000    -2.930000000    -6.700000000
H    -0.031000000    -2.767000000    -7.182000000
C     2.018000000    -2.559000000    -7.390000000
H     1.899000000    -2.302000000    -8.439000000
C     3.275000000    -2.605000000    -6.746000000
H     4.207000000    -2.233000000    -7.164000000
C     3.401000000    -3.083000000    -5.473000000
O     4.714000000    -3.152000000    -4.858000000
C     4.986000000    -2.414000000    -3.713000000
C     5.507000000    -3.124000000    -2.657000000
H     5.824000000    -4.152000000    -2.810000000
C     5.582000000    -2.534000000    -1.412000000
O     6.185000000    -3.320000000    -0.417000000
C     6.126000000    -2.974000000     0.895000000
C     4.998000000    -3.398000000     1.634000000
H     4.171000000    -3.934000000     1.175000000
C     7.080000000    -2.110000000     1.422000000
H     7.900000000    -1.748000000     0.806000000
C     6.936000000    -1.684000000     2.743000000
H     7.658000000    -0.997000000     3.175000000
C     5.839000000    -2.058000000     3.543000000
H     5.765000000    -1.676000000     4.558000000
C     4.889000000    -2.883000000     2.934000000
O     3.800000000    -3.336000000     3.622000000
C     2.975000000    -2.440000000     4.270000000
C     2.142000000    -2.887000000     5.327000000
H     2.200000000    -3.837000000     5.852000000
C     1.132000000    -2.039000000     5.756000000
O     0.246000000    -2.579000000     6.698000000
C    -1.098000000    -2.277000000     6.478000000
C    -1.782000000    -2.664000000     5.314000000
H    -1.385000000    -3.305000000     4.531000000
C    -1.778000000    -1.662000000     7.507000000
H    -1.280000000    -1.263000000     8.388000000
C    -3.127000000    -1.362000000     7.424000000
H    -3.696000000    -0.863000000     8.204000000
C    -3.826000000    -1.750000000     6.270000000
H    -4.890000000    -1.538000000     6.211000000
C    -3.158000000    -2.360000000     5.219000000
O    -3.826000000    -2.830000000     4.086000000
C    -4.443000000    -1.989000000     3.204000000
C    -5.394000000    -2.449000000     2.347000000
H    -5.815000000    -3.438000000     2.504000000
C    -5.892000000    -1.751000000     1.237000000
O    -6.905000000    -2.247000000     0.409000000
C    -6.741000000    -2.153000000    -0.940000000
C    -7.773000000    -1.493000000    -1.568000000
H    -8.679000000    -1.131000000    -1.088000000
C    -7.717000000    -1.328000000    -2.932000000
H    -8.569000000    -1.007000000    -3.526000000
C    -6.650000000    -1.852000000    -3.670000000
H    -6.826000000    -1.795000000    -4.742000000
C    -5.566000000    -2.482000000    -3.015000000
C    -5.595000000    -2.616000000    -1.642000000
H    -4.769000000    -3.127000000    -1.154000000
C     1.572000000    -2.160000000     0.227000000
H     2.528000000    -2.657000000     0.369000000
C     1.393000000    -0.772000000     0.190000000
H     2.254000000    -0.114000000     0.274000000
C     0.127000000    -0.301000000    -0.111000000
H    -0.031000000     0.799000000    -0.269000000
C    -0.966000000    -1.167000000    -0.274000000
H    -1.917000000    -0.772000000    -0.621000000
C    -0.740000000    -2.531000000    -0.140000000
H    -1.652000000    -3.110000000    -0.259000000
C     0.528000000    -3.083000000     0.045000000
C     0.678000000    -4.549000000     0.152000000
O    -0.244000000    -5.275000000    -0.177000000
O     1.732000000    -5.032000000     0.524000000
O     3.602000000    -8.395000000     0.344000000
H     4.475000000    -8.254000000     0.713000000
H     3.646000000    -9.267000000    -0.048000000
O     2.544000000    -6.642000000    -1.466000000
H     2.299000000    -5.880000000    -0.942000000
H     3.010000000    -7.213000000    -0.854000000
O     0.848000000    -9.512000000    -4.259000000
H     1.248000000    -8.656000000    -4.106000000
H    -0.094000000    -9.342000000    -4.244000000
O    -0.072000000    -6.509000000     5.232000000
H    -0.127000000    -6.896000000     4.358000000
H     0.678000000    -6.941000000     5.639000000
O     2.356000000    -9.049000000     3.338000000
H     1.506000000    -8.698000000     3.603000000
H     2.859000000    -8.281000000     3.068000000
O     6.192000000    -5.500000000     4.074000000
H     6.474000000    -5.094000000     4.893000000
H     5.240000000    -5.562000000     4.152000000
O     0.857000000    -6.725000000    -3.600000000
H     0.028000000    -6.623000000    -3.132000000
H     1.522000000    -6.724000000    -2.912000000
O     2.864000000    -5.869000000     2.508000000
H     3.707000000    -6.082000000     2.109000000
H     2.335000000    -5.532000000     1.784000000
O     5.273000000    -6.649000000    -1.875000000
H     5.619000000    -6.355000000    -1.033000000
H     4.323000000    -6.575000000    -1.783000000
O     0.541000000    -7.771000000     0.650000000
H     0.554000000    -6.835000000     0.450000000
H     1.461000000    -8.002000000     0.777000000
O    -0.714000000    -8.087000000     3.137000000
H    -1.447000000    -8.645000000     2.877000000
H    -0.266000000    -7.883000000     2.316000000
O    -2.970000000    -6.788000000     0.032000000
H    -2.501000000    -6.121000000     0.535000000
H    -2.433000000    -6.921000000    -0.749000000
O    -0.654000000    -6.374000000    -6.362000000
H    -0.100000000    -6.007000000    -7.051000000
H    -0.143000000    -6.263000000    -5.560000000
O    -1.256000000    -9.670000000    -0.516000000
H    -2.001000000    -9.580000000     0.078000000
H    -0.528000000    -9.257000000    -0.051000000
O     3.289000000    -5.913000000     5.130000000
H     3.088000000    -5.760000000     4.207000000
H     2.751000000    -6.667000000     5.370000000
O    -1.356000000    -6.248000000    -2.228000000
H    -0.979000000    -6.032000000    -1.376000000
H    -1.558000000    -5.400000000    -2.623000000
O    -4.979000000    -6.686000000    -1.823000000
H    -4.481000000    -6.726000000    -1.007000000
H    -4.315000000    -6.718000000    -2.511000000
O    -1.824000000    -9.772000000    -3.156000000
H    -2.649000000    -9.301000000    -3.039000000
H    -1.310000000    -9.554000000    -2.378000000
O     5.783000000    -6.389000000     0.999000000
H     6.072000000    -7.288000000     1.152000000
H     6.021000000    -5.922000000     1.801000000
