215
-1431.79769
C     4.921000000    -0.962000000    -2.060000000
H     5.168000000    -0.529000000    -1.094000000
C     4.007000000    -0.285000000    -2.945000000
C     3.665000000    -0.947000000    -4.130000000
H     2.898000000    -0.552000000    -4.792000000
C     3.343000000     1.004000000    -2.520000000
O     4.297000000     1.852000000    -1.774000000
H     2.591000000     0.731000000    -1.765000000
O     2.869000000     1.749000000    -3.686000000
C     1.723000000     2.552000000    -3.603000000
C     0.618000000     1.958000000    -4.187000000
H     0.749000000     1.088000000    -4.826000000
C    -0.602000000     2.599000000    -3.980000000
O    -1.692000000     1.899000000    -4.315000000
C    -0.734000000     3.743000000    -3.183000000
C    -2.049000000     4.338000000    -2.801000000
H    -1.932000000     5.423000000    -2.755000000
C    -2.675000000     3.737000000    -1.593000000
C    -2.575000000     4.327000000    -0.342000000
H    -1.910000000     5.169000000    -0.172000000
H    -2.770000000     4.050000000    -3.568000000
C     0.452000000     4.284000000    -2.693000000
H     0.269000000     5.214000000    -2.161000000
C     1.703000000     3.694000000    -2.842000000
C     2.918000000     4.398000000    -2.124000000
H     2.715000000     5.459000000    -1.959000000
H     3.866000000     4.269000000    -2.649000000
C     3.051000000     3.755000000    -0.752000000
C     2.610000000     4.401000000     0.443000000
H     2.052000000     5.316000000     0.259000000
C     3.799000000     2.590000000    -0.633000000
C     3.966000000     2.019000000     0.610000000
H     4.566000000     1.114000000     0.663000000
C     3.462000000     2.573000000     1.771000000
O     3.599000000     1.778000000     2.866000000
C     2.471000000     1.001000000     3.232000000
C     2.801000000    -0.367000000     3.696000000
C     1.764000000    -1.206000000     4.163000000
H     0.722000000    -0.919000000     4.276000000
C     4.008000000    -0.992000000     3.421000000
H     4.821000000    -0.407000000     3.000000000
O     1.720000000     1.728000000     4.311000000
H     1.675000000     1.015000000     2.473000000
C     2.737000000     3.783000000     1.694000000
C     2.069000000     4.323000000     2.945000000
H     1.874000000     5.377000000     2.736000000
H     2.739000000     4.099000000     3.777000000
C     0.678000000     3.702000000     3.176000000
C    -0.473000000     4.272000000     2.729000000
H    -0.423000000     5.256000000     2.271000000
C     0.603000000     2.448000000     3.923000000
C    -0.677000000     1.902000000     4.134000000
H    -0.729000000     1.007000000     4.748000000
C    -1.783000000     2.508000000     3.655000000
O    -3.037000000     1.939000000     3.791000000
C    -3.485000000     1.217000000     2.627000000
C    -4.136000000    -0.177000000     2.904000000
C    -3.757000000    -0.849000000     4.086000000
H    -3.079000000    -0.364000000     4.784000000
C    -4.919000000    -0.790000000     1.986000000
H    -5.152000000    -0.248000000     1.073000000
O    -4.449000000     1.923000000     1.836000000
H    -2.604000000     1.081000000     1.982000000
C    -1.697000000     3.731000000     2.920000000
C    -2.885000000     4.323000000     2.169000000
H    -2.754000000     5.396000000     2.012000000
H    -3.735000000     4.330000000     2.855000000
C    -3.072000000     3.680000000     0.818000000
C    -3.830000000     2.547000000     0.707000000
C    -3.949000000     2.009000000    -0.518000000
H    -4.359000000     1.005000000    -0.597000000
C    -3.398000000     2.580000000    -1.670000000
O    -3.455000000     1.938000000    -2.877000000
C    -2.286000000     1.197000000    -3.259000000
H    -1.541000000     1.092000000    -2.457000000
C    -2.602000000    -0.252000000    -3.623000000
C    -1.544000000    -1.126000000    -3.996000000
H    -0.505000000    -0.834000000    -4.124000000
C    -3.841000000    -0.814000000    -3.321000000
H    -4.547000000    -0.107000000    -2.893000000
C    -4.154000000    -2.198000000    -3.459000000
O    -5.436000000    -2.600000000    -3.342000000
C    -3.104000000    -2.990000000    -3.923000000
H    -3.294000000    -4.058000000    -3.993000000
C    -1.840000000    -2.494000000    -4.189000000
O    -0.808000000    -3.359000000    -4.569000000
C     0.192000000    -3.039000000    -5.485000000
C     1.553000000    -3.010000000    -5.142000000
H     1.842000000    -3.133000000    -4.102000000
C    -0.111000000    -3.092000000    -6.855000000
H    -1.137000000    -3.330000000    -7.125000000
C     0.839000000    -3.058000000    -7.867000000
H     0.580000000    -2.976000000    -8.920000000
C     2.161000000    -2.897000000    -7.425000000
H     2.973000000    -2.690000000    -8.117000000
C     2.540000000    -2.840000000    -6.110000000
O     3.931000000    -2.748000000    -5.675000000
C     4.308000000    -2.110000000    -4.559000000
C     5.226000000    -2.774000000    -3.690000000
H     5.697000000    -3.715000000    -3.966000000
C     5.468000000    -2.187000000    -2.421000000
O     6.282000000    -2.918000000    -1.606000000
C     6.496000000    -2.553000000    -0.345000000
C     5.756000000    -3.007000000     0.723000000
H     4.888000000    -3.614000000     0.478000000
C     7.639000000    -1.804000000    -0.038000000
H     8.183000000    -1.380000000    -0.879000000
C     7.986000000    -1.470000000     1.311000000
H     8.928000000    -0.964000000     1.507000000
C     7.172000000    -1.927000000     2.349000000
H     7.283000000    -1.833000000     3.426000000
C     6.061000000    -2.662000000     2.035000000
O     5.231000000    -3.077000000     3.026000000
C     4.203000000    -2.344000000     3.556000000
C     3.286000000    -3.118000000     4.245000000
H     3.446000000    -4.154000000     4.530000000
C     2.056000000    -2.562000000     4.533000000
O     1.138000000    -3.458000000     4.997000000
C     0.042000000    -3.198000000     5.719000000
C    -1.213000000    -3.370000000     5.045000000
H    -1.293000000    -3.757000000     4.033000000
C     0.104000000    -2.576000000     6.999000000
H     1.056000000    -2.461000000     7.510000000
C    -1.084000000    -2.313000000     7.622000000
H    -1.053000000    -1.790000000     8.574000000
C    -2.294000000    -2.514000000     7.041000000
H    -3.189000000    -2.279000000     7.611000000
C    -2.386000000    -2.929000000     5.737000000
O    -3.647000000    -2.992000000     5.238000000
C    -4.168000000    -2.175000000     4.269000000
C    -5.008000000    -2.756000000     3.375000000
H    -5.397000000    -3.760000000     3.524000000
C    -5.457000000    -2.035000000     2.285000000
O    -6.235000000    -2.763000000     1.387000000
C    -6.641000000    -2.358000000     0.191000000
C    -7.945000000    -1.786000000    -0.003000000
H    -8.586000000    -1.682000000     0.868000000
C    -8.302000000    -1.322000000    -1.223000000
H    -9.256000000    -0.811000000    -1.324000000
C    -7.462000000    -1.564000000    -2.377000000
H    -7.816000000    -1.201000000    -3.338000000
C    -6.222000000    -2.230000000    -2.239000000
C    -5.860000000    -2.653000000    -0.950000000
H    -5.041000000    -3.337000000    -0.743000000
C     1.470000000    -2.229000000     0.226000000
H     2.446000000    -2.642000000    -0.018000000
C     1.324000000    -0.816000000     0.333000000
H     2.177000000    -0.163000000     0.169000000
C     0.070000000    -0.191000000     0.413000000
H    -0.081000000     0.871000000     0.402000000
C    -0.949000000    -1.017000000     0.631000000
H    -1.946000000    -0.599000000     0.748000000
C    -0.848000000    -2.483000000     0.677000000
H    -1.755000000    -3.062000000     0.834000000
C     0.400000000    -3.092000000     0.554000000
C     0.638000000    -4.543000000     0.678000000
O    -0.284000000    -5.224000000     1.018000000
O     1.568000000    -5.058000000     0.025000000
O    -0.746000000   -10.198000000     1.840000000
H    -0.235000000    -9.752000000     2.516000000
H    -0.607000000    -9.675000000     1.051000000
O     2.608000000    -6.539000000     5.667000000
H     2.290000000    -6.223000000     4.822000000
H     3.210000000    -7.251000000     5.446000000
O    -0.557000000    -5.124000000    -2.311000000
H    -0.619000000    -4.216000000    -2.609000000
H     0.032000000    -5.089000000    -1.558000000
O     6.379000000    -7.401000000     0.157000000
H     6.234000000    -6.882000000     0.948000000
H     5.729000000    -7.076000000    -0.465000000
O    -0.485000000    -8.262000000     4.499000000
H    -1.298000000    -8.695000000     4.759000000
H     0.178000000    -8.627000000     5.085000000
O     2.805000000    -8.492000000     0.004000000
H     3.157000000    -8.752000000     0.856000000
H     2.476000000    -9.305000000    -0.378000000
O     5.854000000    -6.264000000     2.509000000
H     6.072000000    -5.936000000     3.381000000
H     4.977000000    -5.921000000     2.336000000
O     3.861000000    -6.229000000    -1.003000000
H     3.550000000    -7.098000000    -0.747000000
H     3.125000000    -5.647000000    -0.818000000
O     5.108000000    -7.509000000    -3.295000000
H     4.652000000    -6.923000000    -2.690000000
H     4.438000000    -8.133000000    -3.574000000
O    -5.324000000    -6.995000000     2.118000000
H    -4.537000000    -6.694000000     2.572000000
H    -4.999000000    -7.592000000     1.445000000
O     0.968000000    -6.082000000     3.332000000
H     0.596000000    -5.934000000     2.463000000
H     0.341000000    -6.661000000     3.766000000
O     3.166000000    -5.777000000     1.874000000
H     2.464000000    -5.777000000     2.525000000
H     2.740000000    -5.506000000     1.061000000
O     0.121000000    -7.737000000    -0.300000000
H     1.025000000    -7.596000000    -0.579000000
H    -0.099000000    -6.955000000     0.206000000
O    -0.879000000    -6.318000000    -5.369000000
H    -1.029000000    -5.557000000    -4.808000000
H    -0.272000000    -6.866000000    -4.872000000
O    -2.619000000    -6.404000000     2.871000000
H    -1.999000000    -6.457000000     2.144000000
H    -2.071000000    -6.278000000     3.645000000
O    -1.438000000    -9.936000000    -1.441000000
H    -2.290000000    -9.583000000    -1.697000000
H    -0.880000000    -9.165000000    -1.339000000
O    -2.693000000    -5.898000000    -0.761000000
H    -2.085000000    -5.729000000    -0.041000000
H    -2.131000000    -6.135000000    -1.498000000
O    -3.871000000    -8.185000000     0.112000000
H    -4.490000000    -8.429000000    -0.576000000
H    -3.554000000    -7.319000000    -0.146000000
O    -5.321000000    -5.951000000    -1.656000000
H    -4.381000000    -5.903000000    -1.485000000
H    -5.388000000    -6.358000000    -2.519000000
