215
-1463.74970
C     4.483000000    -0.274000000     0.921000000
H     4.164000000     0.063000000     1.904000000
C     4.259000000     0.542000000    -0.194000000
C     4.684000000     0.102000000    -1.435000000
H     4.484000000     0.686000000    -2.330000000
C     3.441000000     1.813000000     0.044000000
O     3.666000000     2.338000000     1.334000000
H     2.426000000     1.400000000    -0.050000000
O     3.723000000     2.698000000    -1.019000000
C     2.639000000     3.243000000    -1.572000000
C     2.192000000     2.804000000    -2.791000000
H     2.707000000     2.026000000    -3.350000000
C     0.998000000     3.230000000    -3.325000000
O     0.571000000     2.559000000    -4.496000000
C     0.188000000     4.143000000    -2.650000000
C    -1.241000000     4.462000000    -3.182000000
H    -1.543000000     5.484000000    -2.942000000
C    -2.261000000     3.468000000    -2.668000000
C    -3.056000000     3.805000000    -1.584000000
H    -2.955000000     4.767000000    -1.088000000
H    -1.264000000     4.531000000    -4.271000000
C     0.620000000     4.640000000    -1.415000000
H     0.037000000     5.385000000    -0.880000000
C     1.809000000     4.185000000    -0.913000000
C     2.270000000     4.830000000     0.327000000
H     1.920000000     5.855000000     0.466000000
H     3.343000000     4.871000000     0.129000000
C     1.840000000     4.000000000     1.515000000
C     0.634000000     4.332000000     2.155000000
H    -0.047000000     5.001000000     1.635000000
C     2.632000000     2.960000000     2.023000000
C     2.173000000     2.280000000     3.121000000
H     2.760000000     1.461000000     3.529000000
C     0.991000000     2.614000000     3.746000000
O     0.423000000     1.930000000     4.810000000
C    -0.496000000     0.825000000     4.501000000
C    -0.147000000    -0.524000000     5.036000000
C    -1.181000000    -1.422000000     5.355000000
H    -2.209000000    -1.212000000     5.073000000
C     1.207000000    -0.847000000     5.259000000
H     1.952000000    -0.128000000     4.928000000
O    -1.800000000     1.292000000     4.788000000
H    -0.628000000     0.713000000     3.415000000
C     0.200000000     3.641000000     3.277000000
C    -1.162000000     3.898000000     3.914000000
H    -1.390000000     4.965000000     3.869000000
H    -1.030000000     3.829000000     4.996000000
C    -2.275000000     3.145000000     3.206000000
C    -2.996000000     3.619000000     2.109000000
H    -2.882000000     4.634000000     1.736000000
C    -2.493000000     1.827000000     3.670000000
C    -3.284000000     0.914000000     3.046000000
H    -3.488000000    -0.066000000     3.472000000
C    -4.058000000     1.361000000     1.959000000
O    -4.745000000     0.353000000     1.335000000
C    -4.137000000    -0.041000000     0.050000000
C    -4.206000000    -1.578000000    -0.039000000
C    -4.162000000    -2.322000000     1.191000000
H    -4.392000000    -1.837000000     2.136000000
C    -3.945000000    -2.168000000    -1.260000000
H    -3.981000000    -1.533000000    -2.141000000
O    -4.831000000     0.605000000    -1.028000000
H    -3.059000000     0.165000000    -0.027000000
C    -3.852000000     2.662000000     1.459000000
C    -4.661000000     3.174000000     0.272000000
H    -4.871000000     4.240000000     0.381000000
H    -5.606000000     2.631000000     0.199000000
C    -3.989000000     2.923000000    -1.023000000
C    -4.062000000     1.591000000    -1.604000000
C    -3.262000000     1.211000000    -2.652000000
H    -3.295000000     0.192000000    -3.029000000
C    -2.393000000     2.146000000    -3.208000000
O    -1.548000000     1.721000000    -4.206000000
C    -0.139000000     1.434000000    -4.048000000
H     0.039000000     1.244000000    -2.980000000
C     0.275000000     0.311000000    -4.961000000
C     1.591000000     0.095000000    -5.388000000
H     2.392000000     0.784000000    -5.133000000
C    -0.636000000    -0.708000000    -5.215000000
H    -1.607000000    -0.610000000    -4.737000000
C    -0.302000000    -1.815000000    -5.969000000
O    -1.254000000    -2.782000000    -6.353000000
C     0.984000000    -1.962000000    -6.453000000
H     1.135000000    -2.872000000    -7.026000000
C     1.969000000    -1.019000000    -6.169000000
O     3.201000000    -1.022000000    -6.847000000
C     4.389000000    -0.816000000    -6.114000000
C     4.524000000    -1.213000000    -4.757000000
H     3.708000000    -1.793000000    -4.335000000
C     5.356000000    -0.039000000    -6.708000000
H     5.148000000     0.285000000    -7.724000000
C     6.525000000     0.261000000    -5.951000000
H     7.362000000     0.823000000    -6.358000000
C     6.696000000    -0.158000000    -4.630000000
H     7.638000000    -0.018000000    -4.105000000
C     5.659000000    -0.889000000    -3.990000000
O     5.997000000    -1.451000000    -2.750000000
C     5.340000000    -1.107000000    -1.587000000
C     5.466000000    -1.973000000    -0.490000000
H     5.899000000    -2.968000000    -0.550000000
C     4.959000000    -1.577000000     0.764000000
O     5.228000000    -2.389000000     1.900000000
C     4.981000000    -1.919000000     3.211000000
C     3.947000000    -2.390000000     3.949000000
H     3.126000000    -2.858000000     3.413000000
C     6.024000000    -1.138000000     3.763000000
H     6.718000000    -0.764000000     3.014000000
C     5.998000000    -0.869000000     5.160000000
H     6.754000000    -0.294000000     5.688000000
C     4.842000000    -1.263000000     5.881000000
H     4.786000000    -1.130000000     6.958000000
C     3.853000000    -2.019000000     5.261000000
O     2.791000000    -2.515000000     6.090000000
C     1.502000000    -2.059000000     5.921000000
C     0.495000000    -2.906000000     6.342000000
H     0.682000000    -3.792000000     6.942000000
C    -0.827000000    -2.591000000     6.018000000
O    -1.739000000    -3.654000000     6.325000000
C    -2.866000000    -3.918000000     5.654000000
C    -2.797000000    -4.084000000     4.286000000
H    -1.873000000    -4.083000000     3.714000000
C    -4.039000000    -4.064000000     6.332000000
H    -4.078000000    -3.808000000     7.388000000
C    -5.253000000    -4.366000000     5.681000000
H    -6.160000000    -4.499000000     6.265000000
C    -5.231000000    -4.486000000     4.295000000
H    -6.066000000    -4.807000000     3.678000000
C    -3.995000000    -4.275000000     3.569000000
O    -3.831000000    -4.523000000     2.191000000
C    -3.913000000    -3.704000000     1.112000000
C    -3.625000000    -4.273000000    -0.142000000
H    -3.304000000    -5.303000000    -0.277000000
C    -3.736000000    -3.492000000    -1.287000000
O    -3.543000000    -4.108000000    -2.490000000
C    -3.531000000    -3.568000000    -3.797000000
C    -4.765000000    -3.102000000    -4.310000000
H    -5.718000000    -3.050000000    -3.791000000
C    -4.760000000    -2.551000000    -5.654000000
H    -5.729000000    -2.175000000    -5.973000000
C    -3.560000000    -2.423000000    -6.302000000
H    -3.480000000    -1.917000000    -7.261000000
C    -2.409000000    -2.869000000    -5.648000000
C    -2.374000000    -3.515000000    -4.415000000
H    -1.430000000    -3.828000000    -3.977000000
C     0.468000000    -2.012000000     1.861000000
H     1.043000000    -2.259000000     2.750000000
C     0.522000000    -0.682000000     1.488000000
H     1.009000000     0.053000000     2.124000000
C    -0.120000000    -0.299000000     0.345000000
H    -0.116000000     0.662000000    -0.040000000
C    -0.827000000    -1.241000000    -0.456000000
H    -1.415000000    -0.989000000    -1.335000000
C    -0.758000000    -2.581000000    -0.182000000
H    -1.285000000    -3.297000000    -0.808000000
C    -0.148000000    -2.965000000     0.975000000
C     0.001000000    -4.403000000     1.447000000
O    -0.488000000    -5.331000000     0.825000000
O     0.713000000    -4.716000000     2.357000000
O     3.782000000    -4.770000000    -0.777000000
H     3.161000000    -5.492000000    -0.681000000
H     4.347000000    -4.836000000    -0.007000000
O    -0.404000000    -5.990000000     7.548000000
H    -0.529000000    -6.929000000     7.411000000
H    -0.445000000    -5.613000000     6.670000000
O     4.218000000    -4.158000000    -3.380000000
H     4.109000000    -4.363000000    -2.451000000
H     3.325000000    -4.047000000    -3.707000000
O     4.748000000    -5.605000000     3.954000000
H     4.249000000    -5.637000000     4.770000000
H     5.344000000    -4.865000000     4.066000000
O    -2.610000000    -7.761000000     5.473000000
H    -1.739000000    -7.683000000     5.083000000
H    -2.966000000    -6.873000000     5.446000000
O     5.821000000    -6.201000000     1.262000000
H     5.407000000    -5.978000000     2.095000000
H     6.684000000    -6.538000000     1.506000000
O    -1.233000000   -10.139000000    -0.436000000
H    -0.573000000   -10.695000000    -0.024000000
H    -0.788000000    -9.303000000    -0.578000000
O     0.145000000    -7.843000000     1.188000000
H     1.077000000    -7.838000000     1.410000000
H    -0.140000000    -6.941000000     1.334000000
O     1.082000000    -3.960000000    -3.528000000
H     0.528000000    -4.584000000    -3.058000000
H     1.298000000    -3.293000000    -2.877000000
O    -0.228000000    -6.593000000     4.399000000
H    -0.144000000    -6.146000000     3.557000000
H     0.623000000    -7.010000000     4.536000000
O    -2.705000000    -7.176000000     1.917000000
H    -2.736000000    -6.231000000     2.066000000
H    -1.874000000    -7.319000000     1.463000000
O    -0.682000000    -7.707000000    -4.006000000
H    -1.329000000    -7.983000000    -3.357000000
H    -0.194000000    -7.006000000    -3.575000000
O     1.685000000    -8.977000000    -1.344000000
H     1.469000000    -8.561000000    -0.509000000
H     2.305000000    -9.670000000    -1.112000000
O    -0.228000000    -5.570000000    -1.945000000
H    -0.202000000    -5.673000000    -0.993000000
H    -1.153000000    -5.423000000    -2.144000000
O     2.627000000    -6.638000000     1.884000000
H     1.962000000    -5.950000000     1.888000000
H     3.145000000    -6.476000000     2.672000000
O    -1.210000000    -9.913000000     2.722000000
H    -0.949000000    -9.058000000     2.380000000
H    -0.972000000   -10.530000000     2.030000000
O    -2.482000000    -7.729000000    -1.788000000
H    -3.209000000    -7.107000000    -1.746000000
H    -2.781000000    -8.480000000    -1.276000000
O     3.134000000    -6.013000000     6.398000000
H     2.562000000    -6.651000000     5.972000000
H     2.932000000    -6.094000000     7.330000000
O     1.874000000    -2.463000000    -1.428000000
H     2.656000000    -2.716000000    -0.938000000
H     1.217000000    -2.284000000    -0.756000000
