215
-1457.00242
C     4.817000000     0.093000000     0.133000000
H     4.445000000     0.200000000     1.149000000
C     4.560000000     1.066000000    -0.835000000
C     5.007000000     0.854000000    -2.169000000
H     4.719000000     1.464000000    -3.022000000
C     3.520000000     2.155000000    -0.507000000
O     3.702000000     2.661000000     0.818000000
H     2.529000000     1.684000000    -0.585000000
O     3.567000000     3.187000000    -1.450000000
C     2.417000000     3.675000000    -2.003000000
C     1.832000000     3.015000000    -3.057000000
H     2.377000000     2.271000000    -3.633000000
C     0.482000000     3.221000000    -3.391000000
O     0.027000000     2.375000000    -4.389000000
C    -0.264000000     4.123000000    -2.632000000
C    -1.717000000     4.386000000    -2.989000000
H    -1.943000000     5.428000000    -2.753000000
C    -2.713000000     3.442000000    -2.347000000
C    -3.373000000     3.728000000    -1.150000000
H    -3.260000000     4.674000000    -0.627000000
H    -1.872000000     4.406000000    -4.070000000
C     0.286000000     4.729000000    -1.515000000
H    -0.317000000     5.405000000    -0.914000000
C     1.590000000     4.487000000    -1.195000000
C     2.169000000     5.068000000     0.077000000
H     1.966000000     6.140000000     0.044000000
H     3.247000000     5.198000000    -0.041000000
C     1.925000000     4.225000000     1.349000000
C     0.864000000     4.510000000     2.162000000
H     0.283000000     5.412000000     1.988000000
C     2.708000000     3.102000000     1.664000000
C     2.532000000     2.379000000     2.810000000
H     3.249000000     1.604000000     3.072000000
C     1.433000000     2.589000000     3.602000000
O     1.225000000     1.707000000     4.669000000
C     0.273000000     0.612000000     4.379000000
C     0.790000000    -0.808000000     4.778000000
C    -0.124000000    -1.870000000     5.146000000
H    -1.182000000    -1.656000000     5.019000000
C     2.143000000    -1.132000000     4.842000000
H     2.791000000    -0.378000000     4.404000000
O    -0.999000000     1.042000000     4.942000000
H     0.189000000     0.604000000     3.282000000
C     0.561000000     3.637000000     3.216000000
C    -0.688000000     3.898000000     4.054000000
H    -1.089000000     4.901000000     3.898000000
H    -0.537000000     3.673000000     5.112000000
C    -1.784000000     2.929000000     3.618000000
C    -2.763000000     3.479000000     2.716000000
H    -2.799000000     4.535000000     2.463000000
C    -1.868000000     1.582000000     4.053000000
C    -2.810000000     0.769000000     3.505000000
H    -2.999000000    -0.203000000     3.955000000
C    -3.753000000     1.288000000     2.501000000
O    -4.719000000     0.459000000     1.966000000
C    -4.399000000    -0.193000000     0.714000000
C    -4.626000000    -1.704000000     0.639000000
C    -4.522000000    -2.453000000     1.786000000
H    -4.329000000    -2.029000000     2.768000000
C    -4.811000000    -2.368000000    -0.579000000
H    -4.861000000    -1.829000000    -1.521000000
O    -5.058000000     0.526000000    -0.372000000
H    -3.316000000    -0.046000000     0.590000000
C    -3.648000000     2.626000000     2.123000000
C    -4.615000000     3.132000000     1.018000000
H    -4.760000000     4.213000000     1.072000000
H    -5.605000000     2.684000000     1.124000000
C    -4.033000000     2.773000000    -0.373000000
C    -4.250000000     1.515000000    -0.907000000
C    -3.610000000     1.217000000    -2.113000000
H    -3.824000000     0.294000000    -2.646000000
C    -2.838000000     2.138000000    -2.821000000
O    -2.244000000     1.745000000    -4.028000000
C    -0.874000000     1.353000000    -4.002000000
H    -0.655000000     1.012000000    -2.979000000
C    -0.491000000     0.042000000    -4.734000000
C     0.729000000    -0.157000000    -5.410000000
H     1.411000000     0.686000000    -5.482000000
C    -1.356000000    -0.999000000    -4.665000000
H    -2.270000000    -0.816000000    -4.106000000
C    -0.983000000    -2.267000000    -5.070000000
O    -1.707000000    -3.427000000    -4.963000000
C     0.233000000    -2.526000000    -5.719000000
H     0.638000000    -3.526000000    -5.848000000
C     1.137000000    -1.451000000    -5.798000000
O     2.330000000    -1.707000000    -6.374000000
C     3.482000000    -0.976000000    -6.120000000
C     4.233000000    -1.152000000    -4.988000000
H     3.965000000    -1.759000000    -4.127000000
C     3.833000000     0.065000000    -7.022000000
H     3.095000000     0.164000000    -7.813000000
C     5.099000000     0.720000000    -6.942000000
H     5.299000000     1.452000000    -7.720000000
C     5.819000000     0.577000000    -5.764000000
H     6.738000000     1.104000000    -5.519000000
C     5.369000000    -0.345000000    -4.790000000
O     6.204000000    -0.516000000    -3.747000000
C     5.891000000    -0.237000000    -2.452000000
C     6.255000000    -1.120000000    -1.439000000
H     6.850000000    -2.002000000    -1.660000000
C     5.782000000    -0.893000000    -0.125000000
O     6.109000000    -1.832000000     0.795000000
C     6.064000000    -1.579000000     2.155000000
C     5.010000000    -2.136000000     2.881000000
H     4.262000000    -2.656000000     2.288000000
C     7.030000000    -0.843000000     2.854000000
H     7.837000000    -0.299000000     2.370000000
C     6.890000000    -0.672000000     4.278000000
H     7.627000000    -0.123000000     4.858000000
C     5.771000000    -1.209000000     4.953000000
H     5.562000000    -1.054000000     6.009000000
C     4.875000000    -1.992000000     4.240000000
O     3.924000000    -2.694000000     5.046000000
C     2.557000000    -2.399000000     5.100000000
C     1.678000000    -3.421000000     5.377000000
H     2.125000000    -4.326000000     5.781000000
C     0.333000000    -3.127000000     5.532000000
O    -0.526000000    -4.140000000     5.777000000
C    -1.931000000    -4.033000000     5.579000000
C    -2.397000000    -4.289000000     4.260000000
H    -1.712000000    -4.504000000     3.444000000
C    -2.817000000    -3.734000000     6.602000000
H    -2.472000000    -3.582000000     7.621000000
C    -4.123000000    -3.610000000     6.386000000
H    -4.829000000    -3.323000000     7.161000000
C    -4.616000000    -3.979000000     5.112000000
H    -5.698000000    -4.029000000     5.029000000
C    -3.759000000    -4.246000000     4.037000000
O    -4.307000000    -4.632000000     2.809000000
C    -4.538000000    -3.832000000     1.693000000
C    -4.896000000    -4.494000000     0.518000000
H    -4.907000000    -5.579000000     0.572000000
C    -4.904000000    -3.764000000    -0.663000000
O    -5.095000000    -4.463000000    -1.908000000
C    -4.781000000    -3.931000000    -3.108000000
C    -5.724000000    -3.751000000    -4.106000000
H    -6.794000000    -3.719000000    -3.916000000
C    -5.311000000    -3.307000000    -5.333000000
H    -6.033000000    -2.968000000    -6.072000000
C    -4.024000000    -3.124000000    -5.702000000
H    -3.702000000    -2.875000000    -6.710000000
C    -3.033000000    -3.452000000    -4.712000000
C    -3.421000000    -3.749000000    -3.391000000
H    -2.695000000    -4.036000000    -2.635000000
C     0.893000000    -2.177000000     1.426000000
H     1.701000000    -2.644000000     1.984000000
C     0.948000000    -0.810000000     1.250000000
H     1.706000000    -0.131000000     1.631000000
C    -0.037000000    -0.219000000     0.486000000
H    -0.240000000     0.854000000     0.539000000
C    -0.898000000    -1.044000000    -0.273000000
H    -1.689000000    -0.581000000    -0.858000000
C    -0.897000000    -2.429000000    -0.182000000
H    -1.641000000    -2.968000000    -0.763000000
C     0.036000000    -3.048000000     0.692000000
C     0.011000000    -4.560000000     0.901000000
O    -0.576000000    -5.324000000     0.165000000
O     0.409000000    -5.142000000     1.923000000
O     4.071000000    -4.216000000    -0.232000000
H     3.623000000    -4.587000000     0.528000000
H     4.749000000    -3.652000000     0.142000000
O    -0.578000000    -7.538000000     4.567000000
H    -1.302000000    -8.029000000     4.177000000
H    -0.969000000    -6.705000000     4.830000000
O    -2.400000000   -10.224000000     1.304000000
H    -2.107000000    -9.491000000     0.763000000
H    -1.979000000   -10.991000000     0.917000000
O     4.972000000    -5.807000000    -2.525000000
H     4.475000000    -5.308000000    -1.876000000
H     5.817000000    -5.969000000    -2.107000000
O     3.948000000    -6.354000000     4.454000000
H     4.772000000    -5.908000000     4.649000000
H     3.748000000    -6.847000000     5.250000000
O    -2.832000000    -8.611000000     3.393000000
H    -2.963000000    -9.345000000     2.793000000
H    -2.713000000    -7.852000000     2.822000000
O     0.031000000    -7.751000000    -3.631000000
H    -0.421000000    -7.523000000    -2.818000000
H     0.914000000    -7.993000000    -3.353000000
O    -4.047000000    -7.218000000     5.222000000
H    -3.504000000    -7.894000000     4.817000000
H    -4.222000000    -6.596000000     4.516000000
O     1.325000000    -9.541000000     0.642000000
H     1.087000000    -9.116000000     1.466000000
H     1.967000000    -8.952000000     0.245000000
O     2.535000000    -4.141000000    -4.224000000
H     2.145000000    -4.661000000    -3.521000000
H     2.277000000    -3.241000000    -4.027000000
O     3.325000000    -7.298000000    -0.418000000
H     4.175000000    -7.477000000    -0.821000000
H     3.473000000    -6.519000000     0.118000000
O     0.995000000    -7.594000000     2.468000000
H     0.790000000    -6.741000000     2.085000000
H     0.461000000    -7.635000000     3.261000000
O    -2.332000000    -6.665000000     1.711000000
H    -3.101000000    -6.106000000     1.604000000
H    -1.622000000    -6.180000000     1.291000000
O     2.357000000    -8.496000000    -2.700000000
H     2.369000000    -7.995000000    -1.884000000
H     2.918000000    -9.251000000    -2.526000000
O     0.581000000    -4.636000000    -2.159000000
H     0.609000000    -4.690000000    -1.203000000
H    -0.141000000    -5.212000000    -2.410000000
O     3.024000000    -5.138000000     2.072000000
H     2.069000000    -5.090000000     2.111000000
H     3.288000000    -5.391000000     2.957000000
O    -1.376000000    -7.083000000    -1.535000000
H    -2.209000000    -7.289000000    -1.110000000
H    -0.961000000    -6.447000000    -0.952000000
O     3.408000000    -8.713000000     3.184000000
H     2.588000000    -8.482000000     2.748000000
H     3.556000000    -8.003000000     3.808000000
O     2.425000000    -2.274000000    -2.041000000
H     3.053000000    -2.857000000    -1.615000000
H     1.595000000    -2.451000000    -1.597000000
