215
-1449.61332
C     4.794000000    -0.660000000     0.808000000
H     4.434000000    -0.376000000     1.794000000
C     4.615000000     0.151000000    -0.334000000
C     4.943000000    -0.364000000    -1.610000000
H     4.895000000     0.258000000    -2.500000000
C     3.839000000     1.451000000    -0.219000000
O     4.250000000     2.203000000     0.882000000
H     2.785000000     1.190000000    -0.047000000
O     3.967000000     2.210000000    -1.421000000
C     2.890000000     2.838000000    -1.953000000
C     2.358000000     2.303000000    -3.125000000
H     2.872000000     1.504000000    -3.653000000
C     1.168000000     2.767000000    -3.577000000
O     0.497000000     2.030000000    -4.541000000
C     0.491000000     3.804000000    -2.924000000
C    -0.874000000     4.296000000    -3.452000000
H    -0.968000000     5.364000000    -3.245000000
C    -1.985000000     3.589000000    -2.848000000
C    -2.437000000     4.017000000    -1.561000000
H    -2.078000000     4.982000000    -1.212000000
H    -0.829000000     4.122000000    -4.529000000
C     1.113000000     4.442000000    -1.843000000
H     0.605000000     5.285000000    -1.382000000
C     2.311000000     3.929000000    -1.323000000
C     2.848000000     4.612000000    -0.089000000
H     2.493000000     5.644000000    -0.054000000
H     3.940000000     4.577000000    -0.062000000
C     2.450000000     3.852000000     1.130000000
C     1.340000000     4.305000000     1.862000000
H     0.784000000     5.205000000     1.612000000
C     3.226000000     2.823000000     1.635000000
C     2.839000000     2.132000000     2.817000000
H     3.457000000     1.285000000     3.104000000
C     1.741000000     2.567000000     3.495000000
O     1.320000000     1.891000000     4.607000000
C     0.241000000     1.014000000     4.442000000
C     0.655000000    -0.259000000     5.094000000
C    -0.413000000    -1.081000000     5.409000000
H    -1.422000000    -0.777000000     5.145000000
C     1.957000000    -0.647000000     5.421000000
H     2.851000000    -0.060000000     5.228000000
O    -1.084000000     1.537000000     4.789000000
H     0.240000000     0.833000000     3.357000000
C     1.034000000     3.717000000     3.050000000
C    -0.239000000     4.172000000     3.790000000
H    -0.442000000     5.229000000     3.605000000
H    -0.268000000     3.865000000     4.838000000
C    -1.408000000     3.377000000     3.224000000
C    -2.194000000     3.896000000     2.165000000
H    -1.910000000     4.852000000     1.734000000
C    -1.792000000     2.184000000     3.769000000
C    -2.861000000     1.482000000     3.256000000
H    -3.130000000     0.524000000     3.694000000
C    -3.637000000     1.967000000     2.187000000
O    -4.552000000     1.102000000     1.597000000
C    -4.290000000     0.524000000     0.260000000
C    -4.581000000    -0.996000000     0.229000000
C    -3.990000000    -1.792000000     1.216000000
H    -3.435000000    -1.312000000     2.019000000
C    -5.236000000    -1.544000000    -0.831000000
H    -5.500000000    -0.960000000    -1.709000000
O    -4.797000000     1.315000000    -0.771000000
H    -3.192000000     0.559000000     0.207000000
C    -3.264000000     3.202000000     1.621000000
C    -3.991000000     3.757000000     0.403000000
H    -3.898000000     4.845000000     0.416000000
H    -5.067000000     3.574000000     0.441000000
C    -3.450000000     3.279000000    -0.934000000
C    -3.839000000     2.038000000    -1.470000000
C    -3.308000000     1.541000000    -2.669000000
H    -3.705000000     0.569000000    -2.948000000
C    -2.446000000     2.376000000    -3.397000000
O    -1.778000000     1.715000000    -4.452000000
C    -0.511000000     1.142000000    -4.154000000
H    -0.430000000     0.950000000    -3.074000000
C    -0.428000000    -0.249000000    -4.781000000
C     0.770000000    -0.840000000    -5.115000000
H     1.702000000    -0.325000000    -4.896000000
C    -1.613000000    -1.082000000    -4.902000000
H    -2.561000000    -0.591000000    -4.696000000
C    -1.569000000    -2.351000000    -5.448000000
O    -2.653000000    -3.103000000    -5.686000000
C    -0.351000000    -2.839000000    -5.876000000
H    -0.303000000    -3.850000000    -6.271000000
C     0.813000000    -2.117000000    -5.692000000
O     1.996000000    -2.753000000    -6.066000000
C     3.233000000    -2.207000000    -5.799000000
C     3.982000000    -2.648000000    -4.671000000
H     3.711000000    -3.524000000    -4.088000000
C     3.635000000    -1.058000000    -6.448000000
H     3.019000000    -0.803000000    -7.307000000
C     4.669000000    -0.289000000    -6.012000000
H     4.914000000     0.545000000    -6.666000000
C     5.419000000    -0.678000000    -4.875000000
H     6.093000000     0.101000000    -4.528000000
C     5.126000000    -1.904000000    -4.228000000
O     5.819000000    -2.186000000    -3.026000000
C     5.482000000    -1.654000000    -1.770000000
C     5.693000000    -2.420000000    -0.570000000
H     6.187000000    -3.387000000    -0.620000000
C     5.345000000    -1.914000000     0.716000000
O     5.441000000    -2.706000000     1.820000000
C     5.453000000    -2.247000000     3.134000000
C     4.469000000    -2.616000000     4.018000000
H     3.562000000    -3.128000000     3.706000000
C     6.573000000    -1.613000000     3.571000000
H     7.378000000    -1.301000000     2.909000000
C     6.689000000    -1.375000000     4.934000000
H     7.598000000    -0.880000000     5.269000000
C     5.636000000    -1.586000000     5.831000000
H     5.766000000    -1.270000000     6.863000000
C     4.478000000    -2.182000000     5.363000000
O     3.410000000    -2.308000000     6.182000000
C     2.164000000    -1.894000000     5.982000000
C     1.080000000    -2.673000000     6.266000000
H     1.235000000    -3.642000000     6.734000000
C    -0.216000000    -2.349000000     5.957000000
O    -1.167000000    -3.160000000     6.375000000
C    -2.314000000    -3.156000000     5.554000000
C    -2.339000000    -3.638000000     4.286000000
H    -1.485000000    -3.998000000     3.717000000
C    -3.452000000    -2.668000000     6.116000000
H    -3.405000000    -2.176000000     7.084000000
C    -4.670000000    -2.749000000     5.429000000
H    -5.543000000    -2.375000000     5.957000000
C    -4.763000000    -3.207000000     4.140000000
H    -5.677000000    -3.179000000     3.553000000
C    -3.575000000    -3.575000000     3.511000000
O    -3.532000000    -3.955000000     2.195000000
C    -4.052000000    -3.192000000     1.242000000
C    -4.701000000    -3.778000000     0.125000000
H    -4.632000000    -4.856000000     0.004000000
C    -5.376000000    -2.944000000    -0.845000000
O    -5.771000000    -3.601000000    -2.015000000
C    -5.392000000    -3.030000000    -3.278000000
C    -6.444000000    -2.660000000    -4.115000000
H    -7.459000000    -2.546000000    -3.744000000
C    -6.194000000    -2.450000000    -5.502000000
H    -6.987000000    -2.228000000    -6.212000000
C    -4.945000000    -2.637000000    -6.022000000
H    -4.755000000    -2.390000000    -7.064000000
C    -3.874000000    -2.974000000    -5.143000000
C    -4.087000000    -3.290000000    -3.826000000
H    -3.312000000    -3.642000000    -3.149000000
C     0.757000000    -2.089000000     1.431000000
H     1.452000000    -2.515000000     2.152000000
C     0.688000000    -0.717000000     1.201000000
H     1.402000000    -0.041000000     1.664000000
C    -0.227000000    -0.143000000     0.284000000
H    -0.336000000     0.897000000     0.053000000
C    -0.919000000    -0.963000000    -0.510000000
H    -1.471000000    -0.549000000    -1.350000000
C    -0.899000000    -2.333000000    -0.254000000
H    -1.522000000    -2.944000000    -0.903000000
C    -0.061000000    -2.906000000     0.701000000
C    -0.078000000    -4.450000000     0.841000000
O    -0.838000000    -5.011000000     0.108000000
O     0.454000000    -5.093000000     1.774000000
O    -0.576000000    -9.949000000     1.882000000
H    -1.206000000   -10.658000000     1.752000000
H    -0.587000000    -9.789000000     2.826000000
O    -5.425000000    -6.457000000     2.420000000
H    -5.550000000    -7.386000000     2.227000000
H    -4.592000000    -6.236000000     2.003000000
O    -0.197000000    -9.841000000    -0.987000000
H    -0.162000000    -9.284000000    -0.210000000
H    -0.366000000   -10.719000000    -0.645000000
O    -3.745000000    -9.295000000     1.850000000
H    -3.284000000    -8.456000000     1.876000000
H    -3.448000000    -9.706000000     1.039000000
O     2.856000000    -9.246000000     2.559000000
H     2.205000000    -8.827000000     1.996000000
H     2.550000000    -9.073000000     3.449000000
O     2.997000000    -5.891000000    -4.188000000
H     2.401000000    -6.607000000    -3.969000000
H     3.394000000    -5.646000000    -3.352000000
O     3.569000000    -6.369000000     0.223000000
H     2.714000000    -6.796000000     0.281000000
H     4.200000000    -7.082000000     0.314000000
O    -3.286000000    -7.154000000     4.742000000
H    -3.102000000    -8.074000000     4.929000000
H    -2.511000000    -6.845000000     4.273000000
O    -1.611000000    -5.888000000     6.763000000
H    -1.194000000    -5.715000000     5.919000000
H    -2.478000000    -6.223000000     6.537000000
O    -2.796000000    -6.829000000     0.791000000
H    -3.222000000    -6.789000000    -0.065000000
H    -2.208000000    -6.074000000     0.802000000
O     0.955000000    -6.161000000    -1.629000000
H     0.498000000    -5.621000000    -0.985000000
H     0.859000000    -5.685000000    -2.453000000
O     2.830000000    -5.419000000     2.911000000
H     3.295000000    -5.706000000     2.125000000
H     1.910000000    -5.387000000     2.648000000
O    -0.305000000    -6.503000000     4.144000000
H     0.106000000    -6.117000000     3.370000000
H     0.142000000    -7.342000000     4.259000000
O    -2.211000000    -5.550000000    -1.988000000
H    -1.561000000    -5.374000000    -2.668000000
H    -1.788000000    -5.273000000    -1.175000000
O     3.172000000    -5.824000000     5.766000000
H     3.202000000    -5.455000000     4.884000000
H     2.893000000    -6.731000000     5.637000000
O    -2.699000000    -7.359000000    -3.916000000
H    -2.993000000    -8.073000000    -3.351000000
H    -2.746000000    -6.580000000    -3.362000000
O    -0.126000000    -4.866000000    -3.735000000
H     0.393000000    -4.113000000    -4.019000000
H    -0.014000000    -5.512000000    -4.432000000
O     1.304000000    -7.631000000     0.639000000
H     0.852000000    -6.955000000     1.144000000
H     1.091000000    -7.431000000    -0.273000000
O     3.545000000    -4.387000000    -1.765000000
H     3.000000000    -4.950000000    -1.215000000
H     3.512000000    -3.531000000    -1.338000000
