215
-1461.47201
C    -4.587000000    -1.484000000    -1.691000000
H    -4.672000000    -0.514000000    -2.174000000
C    -4.266000000    -1.636000000    -0.368000000
C    -4.107000000    -2.930000000     0.163000000
H    -3.852000000    -3.002000000     1.217000000
C    -4.077000000    -0.405000000     0.587000000
O    -4.870000000     0.758000000     0.165000000
H    -3.031000000    -0.065000000     0.566000000
O    -4.314000000    -0.755000000     1.944000000
C    -3.486000000    -0.196000000     2.925000000
C    -2.541000000    -1.074000000     3.471000000
H    -2.561000000    -2.128000000     3.206000000
C    -1.509000000    -0.621000000     4.272000000
O    -0.504000000    -1.509000000     4.659000000
C    -1.352000000     0.728000000     4.503000000
C    -0.176000000     1.158000000     5.366000000
H    -0.374000000     2.070000000     5.933000000
C     1.024000000     1.313000000     4.458000000
C     1.106000000     2.590000000     3.857000000
H     0.297000000     3.283000000     4.075000000
H    -0.036000000     0.355000000     6.092000000
C    -2.207000000     1.650000000     3.911000000
H    -2.053000000     2.720000000     4.023000000
C    -3.335000000     1.220000000     3.163000000
C    -4.375000000     2.182000000     2.628000000
H    -4.437000000     2.938000000     3.413000000
H    -5.341000000     1.676000000     2.563000000
C    -4.014000000     2.714000000     1.279000000
C    -3.166000000     3.821000000     1.109000000
H    -2.835000000     4.460000000     1.923000000
C    -4.311000000     1.972000000     0.155000000
C    -3.845000000     2.414000000    -1.117000000
H    -4.132000000     1.879000000    -2.019000000
C    -3.072000000     3.541000000    -1.197000000
O    -2.485000000     3.892000000    -2.373000000
C    -1.215000000     3.317000000    -2.503000000
C    -0.979000000     2.407000000    -3.712000000
C     0.339000000     2.064000000    -4.161000000
H     1.229000000     2.430000000    -3.654000000
C    -2.085000000     1.974000000    -4.408000000
H    -3.080000000     2.303000000    -4.119000000
O    -0.211000000     4.277000000    -2.506000000
H    -0.896000000     2.768000000    -1.605000000
C    -2.676000000     4.224000000    -0.081000000
C    -1.725000000     5.376000000    -0.152000000
H    -1.768000000     6.000000000     0.743000000
H    -2.067000000     5.994000000    -0.985000000
C    -0.239000000     4.919000000    -0.140000000
C     0.461000000     4.984000000     1.121000000
H    -0.035000000     5.324000000     2.026000000
C     0.447000000     4.429000000    -1.290000000
C     1.723000000     3.952000000    -1.169000000
H     2.187000000     3.520000000    -2.052000000
C     2.355000000     3.896000000     0.051000000
O     3.651000000     3.413000000     0.063000000
C     3.870000000     2.059000000     0.533000000
C     4.875000000     1.227000000    -0.250000000
C     5.247000000     1.634000000    -1.534000000
H     4.889000000     2.556000000    -1.985000000
C     5.263000000    -0.077000000     0.224000000
H     5.000000000    -0.459000000     1.207000000
O     4.244000000     2.087000000     1.950000000
H     2.972000000     1.467000000     0.303000000
C     1.678000000     4.407000000     1.188000000
C     2.305000000     4.294000000     2.502000000
H     1.878000000     5.047000000     3.167000000
H     3.373000000     4.519000000     2.510000000
C     2.203000000     2.848000000     3.052000000
C     3.240000000     1.874000000     2.844000000
C     3.132000000     0.598000000     3.428000000
H     3.864000000    -0.177000000     3.215000000
C     1.982000000     0.310000000     4.231000000
O     1.732000000    -0.997000000     4.616000000
C     0.671000000    -1.629000000     3.899000000
H     0.553000000    -1.070000000     2.958000000
C     1.137000000    -3.013000000     3.564000000
C     0.121000000    -3.947000000     3.178000000
H    -0.941000000    -3.720000000     3.147000000
C     2.451000000    -3.302000000     3.404000000
H     3.322000000    -2.675000000     3.578000000
C     2.833000000    -4.573000000     2.947000000
O     4.177000000    -5.008000000     2.884000000
C     1.871000000    -5.562000000     2.783000000
H     2.103000000    -6.566000000     2.439000000
C     0.472000000    -5.281000000     2.952000000
O    -0.457000000    -6.270000000     2.686000000
C    -1.849000000    -6.206000000     2.431000000
C    -2.434000000    -5.816000000     1.226000000
H    -1.844000000    -5.593000000     0.341000000
C    -2.622000000    -6.410000000     3.582000000
H    -2.101000000    -6.658000000     4.503000000
C    -4.015000000    -6.314000000     3.482000000
H    -4.662000000    -6.627000000     4.297000000
C    -4.589000000    -5.902000000     2.265000000
H    -5.654000000    -5.824000000     2.065000000
C    -3.813000000    -5.708000000     1.092000000
O    -4.268000000    -5.322000000    -0.130000000
C    -4.308000000    -4.068000000    -0.625000000
C    -4.651000000    -3.856000000    -1.965000000
H    -4.820000000    -4.738000000    -2.578000000
C    -4.839000000    -2.583000000    -2.500000000
O    -5.255000000    -2.522000000    -3.816000000
C    -5.298000000    -1.466000000    -4.621000000
C    -4.105000000    -0.853000000    -4.871000000
H    -3.200000000    -1.189000000    -4.371000000
C    -6.450000000    -0.931000000    -5.036000000
H    -7.377000000    -1.439000000    -4.783000000
C    -6.430000000     0.206000000    -5.830000000
H    -7.365000000     0.639000000    -6.177000000
C    -5.260000000     0.827000000    -6.120000000
H    -5.187000000     1.705000000    -6.757000000
C    -4.052000000     0.266000000    -5.712000000
O    -2.900000000     0.770000000    -6.261000000
C    -1.890000000     1.098000000    -5.498000000
C    -0.619000000     0.719000000    -5.944000000
H    -0.468000000     0.182000000    -6.877000000
C     0.511000000     1.154000000    -5.189000000
O     1.840000000     0.620000000    -5.487000000
C     2.992000000     1.310000000    -5.225000000
C     4.098000000     0.812000000    -4.517000000
H     4.049000000    -0.191000000    -4.102000000
C     3.185000000     2.478000000    -5.921000000
H     2.405000000     2.954000000    -6.509000000
C     4.393000000     3.184000000    -5.828000000
H     4.473000000     4.116000000    -6.382000000
C     5.505000000     2.699000000    -5.164000000
H     6.396000000     3.316000000    -5.083000000
C     5.418000000     1.448000000    -4.539000000
O     6.384000000     1.091000000    -3.594000000
C     5.922000000     0.722000000    -2.343000000
C     6.283000000    -0.563000000    -1.893000000
H     6.848000000    -1.228000000    -2.541000000
C     6.044000000    -0.910000000    -0.581000000
O     6.421000000    -2.189000000    -0.162000000
C     6.310000000    -2.593000000     1.096000000
C     6.850000000    -1.868000000     2.147000000
H     7.479000000    -1.004000000     1.947000000
C     6.607000000    -2.246000000     3.505000000
H     6.982000000    -1.637000000     4.323000000
C     5.737000000    -3.284000000     3.811000000
H     5.467000000    -3.536000000     4.834000000
C     5.209000000    -4.089000000     2.746000000
C     5.491000000    -3.725000000     1.436000000
H     5.085000000    -4.373000000     0.663000000
C    -0.284000000    -2.908000000    -0.946000000
H    -0.962000000    -3.599000000    -1.440000000
C    -0.613000000    -1.583000000    -0.816000000
H    -1.596000000    -1.245000000    -1.133000000
C     0.361000000    -0.697000000    -0.273000000
H     0.042000000     0.378000000    -0.186000000
C     1.603000000    -1.097000000     0.089000000
H     2.352000000    -0.430000000     0.507000000
C     1.877000000    -2.495000000    -0.010000000
H     2.879000000    -2.799000000     0.282000000
C     0.953000000    -3.421000000    -0.555000000
C     1.309000000    -4.881000000    -0.596000000
O     2.508000000    -5.223000000    -0.457000000
O     0.512000000    -5.615000000    -1.214000000
O     0.929000000    -7.903000000     0.382000000
H     0.530000000    -7.256000000    -0.200000000
H     1.787000000    -7.536000000     0.596000000
O     3.687000000    -9.087000000    -3.319000000
H     3.227000000    -8.251000000    -3.242000000
H     3.758000000    -9.406000000    -2.419000000
O    -0.913000000    -8.712000000    -2.930000000
H    -0.952000000    -9.043000000    -2.033000000
H    -1.155000000    -7.789000000    -2.855000000
O     6.057000000    -6.005000000    -2.315000000
H     5.292000000    -5.518000000    -2.622000000
H     6.075000000    -6.791000000    -2.860000000
O     3.921000000    -7.449000000    -0.225000000
H     3.330000000    -6.702000000    -0.323000000
H     4.685000000    -7.220000000    -0.755000000
O    -1.075000000    -4.168000000    -4.781000000
H    -1.894000000    -4.279000000    -5.264000000
H    -0.537000000    -4.913000000    -5.049000000
O     3.340000000    -5.579000000    -6.194000000
H     3.454000000    -4.681000000    -5.883000000
H     2.833000000    -5.490000000    -7.002000000
O     3.899000000    -4.241000000    -2.645000000
H     3.367000000    -4.452000000    -1.878000000
H     4.284000000    -3.388000000    -2.443000000
O     2.035000000    -6.518000000    -3.205000000
H     1.668000000    -6.223000000    -2.371000000
H     2.724000000    -5.884000000    -3.401000000
O     0.613000000    -9.420000000     2.612000000
H     1.540000000    -9.195000000     2.684000000
H     0.330000000    -9.011000000     1.795000000
O     3.209000000    -8.993000000     1.985000000
H     3.951000000    -9.474000000     2.353000000
H     3.587000000    -8.475000000     1.275000000
O     3.779000000    -8.109000000    -6.070000000
H     3.546000000    -7.271000000    -5.670000000
H     4.052000000    -8.657000000    -5.335000000
O     0.865000000    -2.243000000    -4.307000000
H     1.460000000    -2.007000000    -3.595000000
H     0.376000000    -2.994000000    -3.972000000
O    -1.862000000    -5.951000000    -2.638000000
H    -1.777000000    -5.299000000    -3.334000000
H    -1.171000000    -5.728000000    -2.015000000
O     0.108000000    -6.500000000    -5.592000000
H    -0.109000000    -7.363000000    -5.946000000
H     0.740000000    -6.679000000    -4.895000000
O     2.812000000   -10.498000000    -0.730000000
H     1.965000000   -10.942000000    -0.707000000
H     2.723000000    -9.778000000    -0.106000000
O    -3.648000000    -7.881000000    -1.723000000
H    -3.264000000    -7.063000000    -2.038000000
H    -2.934000000    -8.317000000    -1.258000000
O     3.067000000    -2.823000000    -5.779000000
H     2.289000000    -2.696000000    -5.236000000
H     2.909000000    -2.285000000    -6.554000000
O    -1.350000000    -9.435000000    -0.347000000
H    -0.649000000    -8.851000000    -0.057000000
H    -1.805000000    -9.682000000     0.458000000
