215
-1440.89320
C     5.020000000    -1.302000000     1.106000000
H     4.677000000    -1.240000000     2.136000000
C     4.753000000    -0.264000000     0.165000000
C     5.133000000    -0.534000000    -1.134000000
H     4.941000000     0.284000000    -1.823000000
C     4.136000000     1.053000000     0.555000000
O     4.399000000     1.455000000     1.907000000
H     3.039000000     0.979000000     0.502000000
O     4.518000000     2.145000000    -0.292000000
C     3.472000000     2.957000000    -0.759000000
C     2.977000000     2.715000000    -2.017000000
H     3.379000000     1.860000000    -2.554000000
C     1.881000000     3.420000000    -2.456000000
O     1.321000000     3.028000000    -3.660000000
C     1.309000000     4.442000000    -1.659000000
C     0.037000000     5.083000000    -2.209000000
H    -0.100000000     6.054000000    -1.729000000
C    -1.262000000     4.263000000    -1.894000000
C    -1.917000000     4.468000000    -0.704000000
H    -1.510000000     5.190000000    -0.001000000
H     0.237000000     5.232000000    -3.273000000
C     1.902000000     4.810000000    -0.485000000
H     1.426000000     5.565000000     0.135000000
C     2.905000000     3.969000000    -0.004000000
C     3.352000000     4.300000000     1.446000000
H     2.921000000     5.277000000     1.672000000
H     4.435000000     4.348000000     1.577000000
C     2.732000000     3.272000000     2.298000000
C     1.582000000     3.656000000     2.999000000
H     0.995000000     4.564000000     2.882000000
C     3.321000000     2.008000000     2.548000000
C     2.621000000     1.183000000     3.383000000
H     2.965000000     0.164000000     3.542000000
C     1.448000000     1.472000000     4.013000000
O     0.859000000     0.479000000     4.845000000
C    -0.284000000    -0.264000000     4.216000000
C    -0.179000000    -1.717000000     4.637000000
C    -1.328000000    -2.492000000     4.700000000
H    -2.282000000    -1.989000000     4.562000000
C     1.092000000    -2.313000000     4.656000000
H     2.014000000    -1.740000000     4.606000000
O    -1.546000000     0.358000000     4.668000000
H    -0.317000000    -0.225000000     3.117000000
C     0.936000000     2.751000000     3.817000000
C    -0.412000000     3.147000000     4.460000000
H    -0.561000000     4.178000000     4.787000000
H    -0.419000000     2.551000000     5.375000000
C    -1.691000000     2.640000000     3.718000000
C    -2.345000000     3.515000000     2.838000000
H    -1.890000000     4.482000000     2.640000000
C    -2.189000000     1.368000000     3.889000000
C    -3.322000000     0.957000000     3.201000000
H    -3.670000000    -0.073000000     3.197000000
C    -3.940000000     1.789000000     2.277000000
O    -4.846000000     1.287000000     1.335000000
C    -4.177000000     0.954000000     0.113000000
C    -4.510000000    -0.502000000    -0.365000000
C    -4.465000000    -1.598000000     0.553000000
H    -4.219000000    -1.379000000     1.589000000
C    -4.779000000    -0.699000000    -1.692000000
H    -4.611000000     0.143000000    -2.358000000
O    -4.499000000     1.895000000    -0.926000000
H    -3.093000000     0.960000000     0.296000000
C    -3.474000000     3.132000000     2.056000000
C    -3.910000000     4.052000000     0.919000000
H    -3.617000000     5.042000000     1.277000000
H    -4.982000000     3.997000000     0.719000000
C    -3.087000000     3.770000000    -0.345000000
C    -3.567000000     2.822000000    -1.285000000
C    -2.976000000     2.636000000    -2.488000000
H    -3.321000000     1.829000000    -3.131000000
C    -1.790000000     3.346000000    -2.830000000
O    -1.066000000     2.964000000    -3.920000000
C     0.118000000     2.174000000    -3.615000000
H    -0.006000000     1.719000000    -2.621000000
C     0.127000000     1.078000000    -4.589000000
C     1.388000000     0.563000000    -4.903000000
H     2.277000000     1.000000000    -4.457000000
C    -1.006000000     0.451000000    -4.976000000
H    -1.975000000     0.780000000    -4.611000000
C    -0.933000000    -0.606000000    -5.893000000
O    -2.048000000    -1.236000000    -6.488000000
C     0.359000000    -1.066000000    -6.273000000
H     0.458000000    -1.936000000    -6.918000000
C     1.525000000    -0.546000000    -5.726000000
O     2.684000000    -1.291000000    -5.795000000
C     3.854000000    -0.846000000    -5.310000000
C     4.280000000    -1.442000000    -4.136000000
H     3.519000000    -1.897000000    -3.508000000
C     4.682000000    -0.148000000    -6.200000000
H     4.252000000     0.098000000    -7.168000000
C     6.025000000    -0.035000000    -5.844000000
H     6.658000000     0.367000000    -6.632000000
C     6.501000000    -0.584000000    -4.667000000
H     7.572000000    -0.691000000    -4.513000000
C     5.642000000    -1.358000000    -3.861000000
O     6.180000000    -1.941000000    -2.789000000
C     5.741000000    -1.725000000    -1.486000000
C     6.031000000    -2.688000000    -0.478000000
H     6.519000000    -3.636000000    -0.687000000
C     5.610000000    -2.478000000     0.801000000
O     5.851000000    -3.417000000     1.759000000
C     5.352000000    -3.369000000     3.038000000
C     4.155000000    -3.926000000     3.312000000
H     3.615000000    -4.335000000     2.462000000
C     6.087000000    -2.836000000     4.057000000
H     7.009000000    -2.317000000     3.808000000
C     5.559000000    -2.754000000     5.344000000
H     6.122000000    -2.274000000     6.140000000
C     4.282000000    -3.226000000     5.584000000
H     3.878000000    -3.276000000     6.592000000
C     3.572000000    -3.835000000     4.591000000
O     2.330000000    -4.392000000     4.887000000
C     1.155000000    -3.743000000     4.755000000
C    -0.070000000    -4.475000000     4.875000000
H    -0.016000000    -5.559000000     4.929000000
C    -1.309000000    -3.873000000     4.781000000
O    -2.428000000    -4.601000000     4.937000000
C    -3.687000000    -4.318000000     4.366000000
C    -3.761000000    -4.201000000     2.975000000
H    -2.830000000    -4.213000000     2.415000000
C    -4.821000000    -4.157000000     5.126000000
H    -4.813000000    -4.367000000     6.193000000
C    -6.045000000    -3.800000000     4.524000000
H    -6.920000000    -3.697000000     5.161000000
C    -6.114000000    -3.637000000     3.120000000
H    -6.983000000    -3.395000000     2.514000000
C    -4.960000000    -3.874000000     2.376000000
O    -5.061000000    -3.905000000     0.950000000
C    -5.040000000    -2.771000000     0.137000000
C    -5.353000000    -2.902000000    -1.222000000
H    -5.789000000    -3.832000000    -1.581000000
C    -5.193000000    -1.884000000    -2.161000000
O    -5.713000000    -2.070000000    -3.444000000
C    -5.141000000    -1.517000000    -4.560000000
C    -6.036000000    -1.011000000    -5.499000000
H    -7.071000000    -0.867000000    -5.197000000
C    -5.661000000    -0.685000000    -6.798000000
H    -6.425000000    -0.473000000    -7.542000000
C    -4.261000000    -0.712000000    -7.026000000
H    -3.932000000    -0.514000000    -8.043000000
C    -3.341000000    -1.177000000    -6.108000000
C    -3.787000000    -1.737000000    -4.917000000
H    -3.015000000    -2.117000000    -4.254000000
C     1.157000000    -2.261000000    -0.587000000
H     2.006000000    -2.919000000    -0.419000000
C     1.031000000    -1.099000000     0.132000000
H     1.779000000    -0.822000000     0.870000000
C     0.014000000    -0.237000000    -0.196000000
H    -0.124000000     0.714000000     0.253000000
C    -0.936000000    -0.629000000    -1.158000000
H    -1.824000000    -0.034000000    -1.353000000
C    -0.897000000    -1.866000000    -1.742000000
H    -1.663000000    -2.062000000    -2.489000000
C     0.227000000    -2.699000000    -1.532000000
C     0.305000000    -3.993000000    -2.135000000
O    -0.664000000    -4.344000000    -2.726000000
O     1.165000000    -4.822000000    -1.939000000
O    -4.209000000    -5.157000000    -5.206000000
H    -5.094000000    -5.146000000    -4.842000000
H    -4.332000000    -4.991000000    -6.141000000
O    -1.357000000    -5.348000000     0.524000000
H    -1.727000000    -6.025000000     1.090000000
H    -1.453000000    -5.697000000    -0.362000000
O    -2.230000000    -7.448000000    -2.235000000
H    -2.567000000    -6.570000000    -2.054000000
H    -2.345000000    -7.559000000    -3.179000000
O     2.379000000    -6.962000000    -6.570000000
H     2.071000000    -6.379000000    -5.875000000
H     2.349000000    -6.426000000    -7.363000000
O    -1.348000000    -3.867000000    -8.045000000
H    -0.457000000    -4.207000000    -8.123000000
H    -1.389000000    -3.504000000    -7.160000000
O     4.169000000    -7.865000000    -1.367000000
H     4.241000000    -6.914000000    -1.446000000
H     3.262000000    -8.058000000    -1.603000000
O     0.433000000    -7.295000000    -1.556000000
H     0.678000000    -6.375000000    -1.458000000
H    -0.420000000    -7.271000000    -1.989000000
O     3.079000000    -6.780000000     1.268000000
H     3.275000000    -6.562000000     0.357000000
H     2.366000000    -6.189000000     1.509000000
O     1.362000000    -9.670000000    -2.999000000
H     1.097000000    -8.897000000    -2.501000000
H     1.942000000   -10.149000000    -2.407000000
O    -1.183000000    -2.703000000     1.542000000
H    -1.373000000    -3.549000000     1.137000000
H    -0.579000000    -2.277000000     0.934000000
O     1.116000000    -4.626000000     1.648000000
H     0.494000000    -4.919000000     0.982000000
H     0.570000000    -4.230000000     2.328000000
O    -3.073000000    -8.584000000     0.176000000
H    -2.836000000    -8.423000000    -0.737000000
H    -3.947000000    -8.206000000     0.267000000
O    -2.264000000    -8.243000000    -4.745000000
H    -2.363000000    -7.438000000    -5.253000000
H    -3.160000000    -8.502000000    -4.530000000
O     4.336000000    -4.636000000    -4.089000000
H     3.433000000    -4.786000000    -4.368000000
H     4.706000000    -4.070000000    -4.767000000
O     1.503000000    -5.184000000    -4.719000000
H     1.473000000    -5.064000000    -3.770000000
H     0.640000000    -4.902000000    -5.023000000
O     3.603000000    -5.290000000    -1.297000000
H     3.951000000    -4.804000000    -2.044000000
H     2.657000000    -5.152000000    -1.341000000
O     0.383000000    -9.300000000     1.079000000
H     0.102000000    -9.973000000     0.460000000
H     0.469000000    -8.507000000     0.549000000
O    -3.400000000    -4.727000000    -2.598000000
H    -2.480000000    -4.527000000    -2.770000000
H    -3.737000000    -5.046000000    -3.435000000
O    -1.591000000    -4.015000000    -5.309000000
H    -2.470000000    -4.350000000    -5.484000000
H    -1.489000000    -4.095000000    -4.360000000
