215
-1450.12014
C     4.414000000    -0.442000000     1.160000000
H     3.734000000    -0.399000000     2.007000000
C     4.589000000     0.724000000     0.438000000
C     5.377000000     0.744000000    -0.708000000
H     5.489000000     1.680000000    -1.250000000
C     3.730000000     1.910000000     0.844000000
O     3.682000000     2.083000000     2.279000000
H     2.693000000     1.596000000     0.650000000
O     4.005000000     3.135000000     0.054000000
C     2.960000000     3.797000000    -0.528000000
C     2.691000000     3.548000000    -1.867000000
H     3.288000000     2.797000000    -2.378000000
C     1.545000000     4.083000000    -2.462000000
O     1.088000000     3.595000000    -3.696000000
C     0.554000000     4.779000000    -1.701000000
C    -0.830000000     5.194000000    -2.238000000
H    -1.014000000     6.077000000    -1.623000000
C    -1.934000000     4.123000000    -2.031000000
C    -2.692000000     4.223000000    -0.886000000
H    -2.562000000     5.016000000    -0.154000000
H    -0.797000000     5.513000000    -3.282000000
C     0.908000000     5.025000000    -0.362000000
H     0.166000000     5.513000000     0.264000000
C     2.046000000     4.501000000     0.211000000
C     2.219000000     4.728000000     1.749000000
H     1.828000000     5.695000000     2.073000000
H     3.297000000     4.801000000     1.906000000
C     1.766000000     3.574000000     2.612000000
C     0.569000000     3.813000000     3.254000000
H    -0.013000000     4.700000000     3.016000000
C     2.475000000     2.386000000     2.905000000
C     1.946000000     1.371000000     3.638000000
H     2.449000000     0.408000000     3.601000000
C     0.806000000     1.628000000     4.311000000
O     0.323000000     0.567000000     5.012000000
C    -0.722000000    -0.209000000     4.456000000
C    -0.418000000    -1.660000000     4.871000000
C    -1.444000000    -2.568000000     4.913000000
H    -2.473000000    -2.221000000     4.853000000
C     0.921000000    -2.163000000     4.924000000
H     1.828000000    -1.565000000     4.969000000
O    -2.013000000     0.261000000     4.860000000
H    -0.674000000    -0.238000000     3.358000000
C     0.065000000     2.865000000     4.173000000
C    -1.310000000     3.067000000     4.782000000
H    -1.547000000     4.119000000     4.956000000
H    -1.339000000     2.600000000     5.769000000
C    -2.357000000     2.426000000     3.877000000
C    -2.981000000     3.214000000     2.912000000
H    -2.773000000     4.276000000     2.820000000
C    -2.700000000     1.075000000     4.016000000
C    -3.468000000     0.441000000     3.079000000
H    -3.683000000    -0.625000000     3.076000000
C    -4.159000000     1.232000000     2.145000000
O    -4.936000000     0.642000000     1.185000000
C    -4.304000000     0.296000000    -0.074000000
C    -4.636000000    -1.181000000    -0.426000000
C    -4.123000000    -2.225000000     0.323000000
H    -3.732000000    -2.043000000     1.321000000
C    -5.028000000    -1.457000000    -1.757000000
H    -5.596000000    -0.776000000    -2.386000000
O    -4.716000000     1.148000000    -1.150000000
H    -3.210000000     0.320000000     0.042000000
C    -3.830000000     2.584000000     2.027000000
C    -4.363000000     3.358000000     0.735000000
H    -4.408000000     4.433000000     0.918000000
H    -5.423000000     3.096000000     0.694000000
C    -3.581000000     3.152000000    -0.578000000
C    -3.855000000     2.189000000    -1.490000000
C    -3.090000000     2.114000000    -2.645000000
H    -3.205000000     1.230000000    -3.267000000
C    -2.075000000     3.092000000    -2.886000000
O    -1.203000000     2.904000000    -3.937000000
C     0.163000000     2.456000000    -3.630000000
H     0.223000000     2.149000000    -2.575000000
C     0.545000000     1.280000000    -4.528000000
C     1.885000000     0.994000000    -4.888000000
H     2.690000000     1.675000000    -4.623000000
C    -0.462000000     0.370000000    -4.818000000
H    -1.472000000     0.613000000    -4.496000000
C    -0.202000000    -0.759000000    -5.562000000
O    -1.146000000    -1.678000000    -5.889000000
C     1.061000000    -1.021000000    -5.960000000
H     1.253000000    -1.907000000    -6.560000000
C     2.120000000    -0.182000000    -5.605000000
O     3.434000000    -0.625000000    -5.874000000
C     4.677000000    -0.232000000    -5.351000000
C     4.952000000    -0.323000000    -3.974000000
H     4.276000000    -0.710000000    -3.216000000
C     5.657000000     0.131000000    -6.263000000
H     5.501000000     0.309000000    -7.324000000
C     6.958000000     0.334000000    -5.843000000
H     7.726000000     0.651000000    -6.545000000
C     7.223000000     0.306000000    -4.472000000
H     8.205000000     0.630000000    -4.139000000
C     6.303000000    -0.077000000    -3.590000000
O     6.773000000    -0.309000000    -2.327000000
C     5.919000000    -0.409000000    -1.240000000
C     5.926000000    -1.607000000    -0.407000000
H     6.377000000    -2.493000000    -0.847000000
C     5.027000000    -1.618000000     0.690000000
O     4.673000000    -2.812000000     1.269000000
C     4.598000000    -3.025000000     2.625000000
C     3.462000000    -3.413000000     3.295000000
H     2.518000000    -3.448000000     2.758000000
C     5.763000000    -2.770000000     3.398000000
H     6.655000000    -2.531000000     2.824000000
C     5.790000000    -3.007000000     4.760000000
H     6.747000000    -2.904000000     5.265000000
C     4.639000000    -3.499000000     5.359000000
H     4.670000000    -3.772000000     6.411000000
C     3.485000000    -3.670000000     4.640000000
O     2.349000000    -4.115000000     5.291000000
C     1.133000000    -3.561000000     5.161000000
C     0.029000000    -4.382000000     5.214000000
H     0.217000000    -5.443000000     5.356000000
C    -1.242000000    -3.920000000     5.197000000
O    -2.202000000    -4.821000000     5.262000000
C    -3.111000000    -4.852000000     4.163000000
C    -2.715000000    -4.728000000     2.842000000
H    -1.655000000    -4.774000000     2.607000000
C    -4.456000000    -5.028000000     4.440000000
H    -4.686000000    -5.111000000     5.499000000
C    -5.449000000    -5.050000000     3.460000000
H    -6.491000000    -5.105000000     3.765000000
C    -5.023000000    -4.870000000     2.168000000
H    -5.770000000    -4.899000000     1.378000000
C    -3.677000000    -4.660000000     1.828000000
O    -3.368000000    -4.476000000     0.478000000
C    -3.947000000    -3.487000000    -0.234000000
C    -4.193000000    -3.713000000    -1.632000000
H    -4.129000000    -4.667000000    -2.148000000
C    -4.790000000    -2.695000000    -2.366000000
O    -5.233000000    -2.889000000    -3.678000000
C    -4.521000000    -2.279000000    -4.694000000
C    -5.305000000    -1.770000000    -5.732000000
H    -6.380000000    -1.877000000    -5.606000000
C    -4.682000000    -1.068000000    -6.746000000
H    -5.284000000    -0.495000000    -7.446000000
C    -3.291000000    -1.010000000    -6.766000000
H    -2.838000000    -0.477000000    -7.598000000
C    -2.520000000    -1.608000000    -5.801000000
C    -3.108000000    -2.202000000    -4.705000000
H    -2.490000000    -2.724000000    -3.979000000
C     0.356000000    -2.311000000     0.878000000
H     0.741000000    -3.011000000     1.616000000
C     0.377000000    -0.926000000     1.076000000
H     1.036000000    -0.543000000     1.852000000
C    -0.215000000    -0.081000000     0.130000000
H    -0.206000000     1.008000000     0.172000000
C    -0.836000000    -0.654000000    -0.980000000
H    -1.162000000    -0.017000000    -1.798000000
C    -0.886000000    -2.025000000    -1.187000000
H    -1.300000000    -2.502000000    -2.071000000
C    -0.336000000    -2.878000000    -0.222000000
C    -0.261000000    -4.362000000    -0.453000000
O    -0.810000000    -4.955000000    -1.295000000
O     0.643000000    -4.931000000     0.098000000
O    -2.139000000    -9.723000000     1.201000000
H    -2.851000000    -9.261000000     1.643000000
H    -1.739000000    -9.062000000     0.635000000
O    -3.496000000    -8.843000000     3.742000000
H    -2.747000000    -8.384000000     3.362000000
H    -4.188000000    -8.755000000     3.086000000
O    -0.422000000    -4.902000000    -6.140000000
H     0.379000000    -4.808000000    -5.625000000
H    -1.009000000    -4.229000000    -5.796000000
O     4.622000000    -4.108000000    -3.432000000
H     3.956000000    -3.437000000    -3.287000000
H     4.136000000    -4.859000000    -3.772000000
O     0.509000000    -6.962000000    -4.277000000
H     0.299000000    -7.610000000    -4.950000000
H     1.279000000    -6.506000000    -4.614000000
O    -4.240000000    -7.150000000    -3.722000000
H    -4.150000000    -7.853000000    -4.366000000
H    -3.524000000    -6.548000000    -3.923000000
O     1.277000000    -9.833000000     2.269000000
H     0.429000000    -9.474000000     2.010000000
H     1.732000000    -9.994000000     1.443000000
O    -0.851000000    -7.418000000    -1.908000000
H    -0.180000000    -7.475000000    -2.589000000
H    -0.888000000    -6.488000000    -1.685000000
O     5.356000000    -5.299000000    -0.889000000
H     4.828000000    -4.905000000    -0.195000000
H     5.109000000    -4.820000000    -1.680000000
O    -1.229000000    -7.608000000     3.179000000
H    -0.933000000    -7.215000000     2.358000000
H    -0.471000000    -7.547000000     3.761000000
O     0.405000000    -7.668000000     0.613000000
H     0.409000000    -6.724000000     0.777000000
H     0.211000000    -7.748000000    -0.321000000
O     3.401000000    -7.962000000    -0.762000000
H     2.612000000    -8.002000000    -0.221000000
H     3.898000000    -7.225000000    -0.407000000
O     2.777000000    -5.615000000    -5.296000000
H     3.053000000    -4.999000000    -5.975000000
H     3.156000000    -6.452000000    -5.563000000
O     2.145000000    -5.627000000    -2.120000000
H     1.399000000    -6.122000000    -2.458000000
H     1.897000000    -5.402000000    -1.223000000
O     3.202000000    -5.967000000     1.352000000
H     3.088000000    -6.806000000     1.797000000
H     2.319000000    -5.600000000     1.300000000
O    -1.859000000    -9.712000000    -2.941000000
H    -1.378000000    -8.942000000    -2.635000000
H    -2.578000000    -9.809000000    -2.318000000
O    -2.099000000    -5.483000000    -3.641000000
H    -1.388000000    -6.015000000    -3.998000000
H    -1.790000000    -5.219000000    -2.774000000
O     2.437000000    -2.382000000    -1.832000000
H     2.228000000    -3.310000000    -1.728000000
H     1.776000000    -1.927000000    -1.310000000
O    -4.250000000    -7.669000000     1.234000000
H    -5.032000000    -7.763000000     0.689000000
H    -4.012000000    -6.746000000     1.153000000
