215
-1452.83854
C    -4.460000000    -1.501000000    -1.490000000
H    -4.383000000    -0.546000000    -2.004000000
C    -4.483000000    -1.560000000    -0.084000000
C    -4.425000000    -2.806000000     0.550000000
H    -4.467000000    -2.905000000     1.631000000
C    -4.365000000    -0.311000000     0.823000000
O    -5.028000000     0.852000000     0.349000000
H    -3.318000000     0.019000000     0.750000000
O    -4.574000000    -0.393000000     2.264000000
C    -3.573000000     0.122000000     3.061000000
C    -2.692000000    -0.794000000     3.673000000
H    -2.847000000    -1.868000000     3.622000000
C    -1.612000000    -0.373000000     4.423000000
O    -0.637000000    -1.269000000     4.776000000
C    -1.502000000     0.992000000     4.633000000
C    -0.223000000     1.453000000     5.364000000
H    -0.444000000     2.414000000     5.835000000
C     1.042000000     1.628000000     4.436000000
C     1.264000000     2.885000000     3.944000000
H     0.572000000     3.676000000     4.221000000
H    -0.079000000     0.862000000     6.271000000
C    -2.457000000     1.884000000     4.184000000
H    -2.277000000     2.954000000     4.247000000
C    -3.530000000     1.529000000     3.317000000
C    -4.486000000     2.500000000     2.679000000
H    -4.607000000     3.412000000     3.268000000
H    -5.471000000     2.073000000     2.477000000
C    -3.945000000     2.783000000     1.270000000
C    -3.187000000     3.879000000     1.145000000
H    -2.843000000     4.490000000     1.975000000
C    -4.230000000     1.915000000     0.188000000
C    -3.759000000     2.304000000    -1.094000000
H    -4.078000000     1.866000000    -2.036000000
C    -2.867000000     3.379000000    -1.185000000
O    -2.276000000     3.691000000    -2.430000000
C    -0.941000000     3.179000000    -2.653000000
C    -0.876000000     2.538000000    -3.993000000
C     0.374000000     2.185000000    -4.546000000
H     1.306000000     2.490000000    -4.078000000
C    -2.014000000     2.125000000    -4.626000000
H    -3.001000000     2.299000000    -4.205000000
O    -0.147000000     4.351000000    -2.623000000
H    -0.650000000     2.443000000    -1.890000000
C    -2.576000000     4.161000000    -0.094000000
C    -1.571000000     5.316000000    -0.245000000
H    -1.784000000     6.047000000     0.538000000
H    -1.806000000     5.808000000    -1.191000000
C    -0.112000000     4.807000000    -0.243000000
C     0.673000000     4.878000000     0.959000000
H     0.170000000     5.231000000     1.855000000
C     0.500000000     4.427000000    -1.427000000
C     1.885000000     4.038000000    -1.364000000
H     2.397000000     3.614000000    -2.224000000
C     2.627000000     4.093000000    -0.171000000
O     3.898000000     3.483000000    -0.152000000
C     3.937000000     2.125000000     0.472000000
C     4.820000000     1.129000000    -0.280000000
C     4.797000000     1.083000000    -1.729000000
H     4.313000000     1.906000000    -2.250000000
C     5.609000000     0.198000000     0.427000000
H     5.546000000     0.205000000     1.512000000
O     4.296000000     2.220000000     1.861000000
H     2.879000000     1.825000000     0.494000000
C     1.955000000     4.460000000     0.995000000
C     2.601000000     4.451000000     2.385000000
H     2.095000000     5.167000000     3.037000000
H     3.670000000     4.661000000     2.455000000
C     2.302000000     3.082000000     3.005000000
C     3.273000000     2.091000000     2.786000000
C     3.094000000     0.795000000     3.390000000
H     3.829000000     0.003000000     3.271000000
C     1.954000000     0.595000000     4.121000000
O     1.677000000    -0.645000000     4.554000000
C     0.580000000    -1.416000000     3.917000000
H     0.373000000    -0.920000000     2.957000000
C     0.950000000    -2.864000000     3.605000000
C    -0.019000000    -3.857000000     3.515000000
H    -1.011000000    -3.669000000     3.916000000
C     2.228000000    -3.017000000     3.034000000
H     2.855000000    -2.134000000     2.944000000
C     2.574000000    -4.288000000     2.611000000
O     3.821000000    -4.737000000     2.015000000
C     1.678000000    -5.305000000     2.686000000
H     2.064000000    -6.219000000     2.243000000
C     0.353000000    -5.142000000     3.159000000
O    -0.575000000    -6.240000000     3.177000000
C    -1.979000000    -6.127000000     2.941000000
C    -2.480000000    -5.613000000     1.770000000
H    -1.865000000    -5.273000000     0.941000000
C    -2.859000000    -6.713000000     3.900000000
H    -2.479000000    -7.024000000     4.870000000
C    -4.267000000    -6.732000000     3.623000000
H    -5.006000000    -7.066000000     4.347000000
C    -4.727000000    -6.121000000     2.450000000
H    -5.776000000    -6.039000000     2.175000000
C    -3.835000000    -5.587000000     1.524000000
O    -4.357000000    -5.236000000     0.338000000
C    -4.337000000    -3.998000000    -0.217000000
C    -4.364000000    -3.910000000    -1.594000000
H    -4.202000000    -4.825000000    -2.158000000
C    -4.367000000    -2.667000000    -2.235000000
O    -4.203000000    -2.718000000    -3.650000000
C    -4.592000000    -1.746000000    -4.489000000
C    -3.620000000    -0.947000000    -4.992000000
H    -2.606000000    -1.010000000    -4.606000000
C    -5.934000000    -1.691000000    -4.931000000
H    -6.608000000    -2.346000000    -4.384000000
C    -6.371000000    -0.759000000    -5.908000000
H    -7.405000000    -0.786000000    -6.241000000
C    -5.307000000     0.065000000    -6.416000000
H    -5.583000000     0.868000000    -7.095000000
C    -4.000000000     0.054000000    -5.899000000
O    -3.095000000     0.913000000    -6.425000000
C    -1.974000000     1.383000000    -5.812000000
C    -0.736000000     1.049000000    -6.367000000
H    -0.640000000     0.376000000    -7.215000000
C     0.427000000     1.507000000    -5.760000000
O     1.669000000     1.116000000    -6.333000000
C     2.925000000     1.507000000    -5.908000000
C     3.655000000     0.645000000    -5.049000000
H     3.316000000    -0.360000000    -4.810000000
C     3.429000000     2.726000000    -6.205000000
H     2.888000000     3.460000000    -6.797000000
C     4.646000000     3.071000000    -5.740000000
H     5.009000000     4.087000000    -5.874000000
C     5.332000000     2.254000000    -4.886000000
H     6.315000000     2.597000000    -4.573000000
C     4.871000000     1.028000000    -4.560000000
O     5.570000000     0.091000000    -3.791000000
C     5.500000000     0.088000000    -2.399000000
C     6.249000000    -0.804000000    -1.668000000
H     6.772000000    -1.603000000    -2.187000000
C     6.258000000    -0.781000000    -0.297000000
O     7.082000000    -1.683000000     0.257000000
C     6.634000000    -2.505000000     1.211000000
C     7.130000000    -2.351000000     2.536000000
H     7.903000000    -1.593000000     2.628000000
C     6.558000000    -2.939000000     3.652000000
H     6.947000000    -2.854000000     4.663000000
C     5.430000000    -3.744000000     3.378000000
H     4.914000000    -4.304000000     4.153000000
C     4.914000000    -3.923000000     2.118000000
C     5.519000000    -3.311000000     1.025000000
H     5.110000000    -3.497000000     0.035000000
C     0.542000000    -2.935000000    -0.127000000
H     0.056000000    -3.852000000     0.195000000
C    -0.060000000    -1.708000000     0.102000000
H    -0.987000000    -1.604000000     0.661000000
C     0.611000000    -0.561000000    -0.262000000
H     0.227000000     0.354000000     0.043000000
C     1.841000000    -0.684000000    -0.955000000
H     2.231000000     0.235000000    -1.386000000
C     2.411000000    -1.946000000    -1.204000000
H     3.320000000    -2.023000000    -1.795000000
C     1.712000000    -3.066000000    -0.894000000
C     2.246000000    -4.426000000    -1.288000000
O     3.230000000    -4.541000000    -1.965000000
O     1.699000000    -5.410000000    -0.862000000
O     1.740000000    -8.104000000    -0.193000000
H     1.550000000    -7.307000000    -0.687000000
H     2.324000000    -7.817000000     0.510000000
O     4.974000000    -8.560000000    -5.316000000
H     4.167000000    -8.339000000    -4.851000000
H     5.426000000    -7.723000000    -5.421000000
O     2.075000000    -9.767000000    -3.402000000
H     2.310000000    -8.854000000    -3.234000000
H     2.811000000   -10.271000000    -3.057000000
O     4.470000000    -6.962000000    -1.143000000
H     4.172000000    -6.103000000    -1.443000000
H     4.079000000    -7.061000000    -0.275000000
O     3.040000000    -7.357000000    -3.717000000
H     2.629000000    -6.542000000    -4.006000000
H     3.724000000    -7.078000000    -3.109000000
O     6.588000000    -8.823000000    -0.901000000
H     6.504000000    -9.305000000    -1.723000000
H     5.933000000    -8.127000000    -0.963000000
O    -2.001000000    -4.427000000    -4.297000000
H    -2.509000000    -5.234000000    -4.220000000
H    -2.119000000    -4.155000000    -5.207000000
O     3.833000000    -2.988000000    -6.064000000
H     2.918000000    -2.746000000    -6.207000000
H     4.058000000    -3.529000000    -6.821000000
O     5.159000000    -3.646000000    -3.455000000
H     4.495000000    -4.011000000    -2.871000000
H     4.661000000    -3.135000000    -4.094000000
O     2.216000000    -4.995000000    -4.496000000
H     2.645000000    -4.904000000    -3.646000000
H     2.827000000    -4.596000000    -5.116000000
O     4.379000000    -8.059000000     1.893000000
H     5.157000000    -8.513000000     2.216000000
H     4.197000000    -7.395000000     2.558000000
O     5.724000000    -6.050000000    -5.002000000
H     5.619000000    -5.120000000    -4.800000000
H     6.638000000    -6.240000000    -4.792000000
O    -0.308000000    -2.441000000    -3.720000000
H    -0.123000000    -2.240000000    -2.803000000
H    -0.831000000    -3.242000000    -3.688000000
O    -0.651000000    -5.833000000    -2.212000000
H    -0.659000000    -5.003000000    -2.689000000
H     0.174000000    -5.824000000    -1.729000000
O     7.915000000    -3.647000000    -3.410000000
H     6.962000000    -3.735000000    -3.425000000
H     8.175000000    -3.705000000    -4.330000000
O     0.013000000    -6.502000000    -6.172000000
H    -0.176000000    -7.364000000    -5.800000000
H     0.482000000    -6.039000000    -5.477000000
O    -2.759000000    -7.551000000    -2.134000000
H    -2.107000000    -6.850000000    -2.136000000
H    -2.279000000    -8.324000000    -1.836000000
O     1.250000000    -2.173000000    -5.895000000
H     0.800000000    -2.638000000    -5.190000000
H     1.175000000    -1.249000000    -5.658000000
O    -1.066000000    -9.364000000    -1.023000000
H    -0.309000000    -8.819000000    -0.809000000
H    -1.350000000    -9.720000000    -0.181000000
