215
-1466.85524
C     5.750000000     0.405000000     0.529000000
H     5.938000000     1.079000000     1.360000000
C     4.808000000     0.817000000    -0.416000000
C     4.473000000    -0.068000000    -1.442000000
H     3.633000000     0.189000000    -2.081000000
C     3.889000000     2.019000000    -0.224000000
O     4.180000000     2.688000000     1.003000000
H     2.866000000     1.637000000    -0.092000000
O     3.779000000     2.979000000    -1.291000000
C     2.489000000     3.386000000    -1.700000000
C     1.878000000     2.721000000    -2.778000000
H     2.355000000     1.831000000    -3.182000000
C     0.616000000     3.130000000    -3.162000000
O    -0.023000000     2.423000000    -4.208000000
C    -0.063000000     4.093000000    -2.381000000
C    -1.520000000     4.365000000    -2.686000000
H    -1.808000000     5.374000000    -2.381000000
C    -2.510000000     3.459000000    -2.049000000
C    -3.103000000     3.904000000    -0.815000000
H    -2.683000000     4.767000000    -0.304000000
H    -1.738000000     4.290000000    -3.753000000
C     0.520000000     4.653000000    -1.259000000
H    -0.127000000     5.313000000    -0.687000000
C     1.793000000     4.276000000    -0.927000000
C     2.449000000     4.950000000     0.305000000
H     2.092000000     5.968000000     0.476000000
H     3.507000000     5.115000000     0.089000000
C     2.303000000     4.129000000     1.580000000
C     1.224000000     4.321000000     2.398000000
H     0.554000000     5.158000000     2.216000000
C     3.223000000     3.093000000     1.862000000
C     2.998000000     2.156000000     2.907000000
H     3.628000000     1.285000000     3.073000000
C     1.711000000     2.257000000     3.585000000
O     1.375000000     1.259000000     4.515000000
C     0.387000000     0.361000000     4.078000000
C     0.876000000    -1.086000000     4.283000000
C     0.018000000    -2.143000000     4.510000000
H    -1.035000000    -1.875000000     4.538000000
C     2.237000000    -1.377000000     4.312000000
H     2.985000000    -0.592000000     4.242000000
O    -0.893000000     0.750000000     4.686000000
H     0.237000000     0.478000000     2.994000000
C     0.879000000     3.358000000     3.391000000
C    -0.430000000     3.539000000     4.125000000
H    -0.700000000     4.584000000     4.296000000
H    -0.265000000     3.158000000     5.135000000
C    -1.511000000     2.706000000     3.466000000
C    -2.409000000     3.270000000     2.578000000
H    -2.137000000     4.244000000     2.180000000
C    -1.752000000     1.360000000     3.850000000
C    -2.886000000     0.724000000     3.484000000
H    -2.944000000    -0.337000000     3.713000000
C    -3.842000000     1.394000000     2.700000000
O    -4.843000000     0.594000000     2.122000000
C    -4.591000000     0.144000000     0.747000000
C    -4.787000000    -1.337000000     0.496000000
C    -4.360000000    -2.262000000     1.404000000
H    -4.117000000    -1.855000000     2.382000000
C    -5.259000000    -1.783000000    -0.733000000
H    -5.599000000    -1.036000000    -1.445000000
O    -5.292000000     1.041000000    -0.137000000
H    -3.505000000     0.223000000     0.595000000
C    -3.598000000     2.639000000     2.198000000
C    -4.595000000     3.347000000     1.247000000
H    -4.714000000     4.425000000     1.370000000
H    -5.607000000     2.961000000     1.389000000
C    -4.078000000     3.069000000    -0.172000000
C    -4.442000000     1.854000000    -0.805000000
C    -3.839000000     1.434000000    -1.996000000
H    -4.127000000     0.509000000    -2.489000000
C    -2.866000000     2.204000000    -2.591000000
O    -2.261000000     1.784000000    -3.783000000
C    -0.856000000     1.330000000    -3.823000000
H    -0.706000000     0.977000000    -2.792000000
C    -0.718000000     0.187000000    -4.783000000
C     0.493000000    -0.064000000    -5.356000000
H     1.351000000     0.548000000    -5.089000000
C    -1.749000000    -0.791000000    -4.994000000
H    -2.708000000    -0.684000000    -4.494000000
C    -1.454000000    -1.905000000    -5.774000000
O    -2.503000000    -2.842000000    -5.944000000
C    -0.276000000    -2.137000000    -6.490000000
H    -0.025000000    -3.081000000    -6.968000000
C     0.712000000    -1.155000000    -6.258000000
O     2.011000000    -1.507000000    -6.641000000
C     3.130000000    -1.197000000    -5.929000000
C     3.358000000    -1.789000000    -4.674000000
H     2.561000000    -2.464000000    -4.372000000
C     4.212000000    -0.454000000    -6.496000000
H     4.095000000    -0.107000000    -7.519000000
C     5.421000000    -0.343000000    -5.870000000
H     6.220000000     0.256000000    -6.299000000
C     5.593000000    -0.790000000    -4.538000000
H     6.535000000    -0.717000000    -4.002000000
C     4.551000000    -1.522000000    -4.005000000
O     4.852000000    -2.087000000    -2.765000000
C     5.189000000    -1.233000000    -1.680000000
C     6.123000000    -1.636000000    -0.731000000
H     6.748000000    -2.523000000    -0.791000000
C     6.382000000    -0.823000000     0.338000000
O     7.170000000    -1.249000000     1.334000000
C     6.667000000    -1.250000000     2.566000000
C     5.746000000    -2.209000000     2.945000000
H     5.412000000    -2.935000000     2.209000000
C     7.055000000    -0.296000000     3.430000000
H     7.873000000     0.373000000     3.176000000
C     6.547000000    -0.221000000     4.746000000
H     6.807000000     0.589000000     5.423000000
C     5.507000000    -1.084000000     5.084000000
H     4.980000000    -1.071000000     6.035000000
C     5.094000000    -2.070000000     4.172000000
O     4.014000000    -2.919000000     4.548000000
C     2.684000000    -2.629000000     4.561000000
C     1.856000000    -3.689000000     4.786000000
H     2.322000000    -4.662000000     4.922000000
C     0.484000000    -3.439000000     4.731000000
O    -0.381000000    -4.490000000     5.081000000
C    -1.739000000    -4.378000000     4.868000000
C    -2.257000000    -4.480000000     3.599000000
H    -1.690000000    -4.732000000     2.707000000
C    -2.575000000    -3.959000000     5.904000000
H    -2.187000000    -3.753000000     6.898000000
C    -3.936000000    -3.938000000     5.723000000
H    -4.586000000    -3.785000000     6.581000000
C    -4.513000000    -4.092000000     4.445000000
H    -5.586000000    -4.014000000     4.287000000
C    -3.639000000    -4.290000000     3.348000000
O    -4.190000000    -4.485000000     2.113000000
C    -4.474000000    -3.573000000     1.178000000
C    -4.777000000    -4.010000000    -0.109000000
H    -4.894000000    -5.084000000    -0.226000000
C    -5.155000000    -3.095000000    -1.106000000
O    -5.600000000    -3.574000000    -2.357000000
C    -5.282000000    -3.048000000    -3.607000000
C    -6.237000000    -2.281000000    -4.235000000
H    -7.142000000    -1.915000000    -3.758000000
C    -5.885000000    -1.597000000    -5.412000000
H    -6.618000000    -0.892000000    -5.794000000
C    -4.730000000    -1.869000000    -6.044000000
H    -4.426000000    -1.379000000    -6.966000000
C    -3.797000000    -2.742000000    -5.496000000
C    -4.053000000    -3.271000000    -4.216000000
H    -3.241000000    -3.866000000    -3.807000000
C     2.060000000    -1.784000000     0.409000000
H     2.941000000    -2.005000000     1.006000000
C     1.417000000    -0.589000000     0.669000000
H     1.804000000     0.035000000     1.471000000
C     0.291000000    -0.226000000    -0.010000000
H    -0.272000000     0.662000000     0.121000000
C    -0.221000000    -1.074000000    -1.044000000
H    -1.117000000    -0.829000000    -1.609000000
C     0.492000000    -2.209000000    -1.423000000
H     0.065000000    -2.767000000    -2.252000000
C     1.634000000    -2.618000000    -0.683000000
C     2.491000000    -3.783000000    -1.137000000
O     2.040000000    -4.661000000    -1.853000000
O     3.487000000    -3.949000000    -0.419000000
O     3.959000000    -8.973000000     0.012000000
H     4.657000000    -8.375000000     0.279000000
H     3.151000000    -8.492000000     0.187000000
O     2.685000000    -7.081000000    -6.763000000
H     2.516000000    -7.617000000    -5.988000000
H     1.839000000    -6.682000000    -6.967000000
O     0.571000000    -6.960000000     3.138000000
H     0.941000000    -6.131000000     2.836000000
H     1.002000000    -7.123000000     3.977000000
O     5.830000000    -4.955000000    -0.219000000
H     4.928000000    -4.634000000    -0.210000000
H     5.949000000    -5.308000000    -1.101000000
O     8.677000000    -3.762000000    -2.106000000
H     8.335000000    -4.041000000    -1.256000000
H     8.394000000    -4.446000000    -2.714000000
O     2.168000000    -5.069000000     1.954000000
H     2.863000000    -4.473000000     2.233000000
H     2.137000000    -4.972000000     1.002000000
O     8.578000000    -4.453000000     0.615000000
H     8.845000000    -3.871000000     1.327000000
H     7.623000000    -4.478000000     0.671000000
O    -1.441000000    -6.897000000     1.012000000
H    -1.297000000    -6.047000000     0.596000000
H    -0.862000000    -6.891000000     1.775000000
O     2.062000000    -6.965000000    -0.649000000
H     1.495000000    -7.528000000    -1.175000000
H     1.934000000    -6.089000000    -1.012000000
O    -1.373000000    -8.687000000    -0.830000000
H    -1.339000000    -8.235000000     0.013000000
H    -1.500000000    -9.609000000    -0.602000000
O     3.643000000    -8.453000000    -2.632000000
H     4.034000000    -8.761000000    -1.814000000
H     2.733000000    -8.261000000    -2.405000000
O     6.430000000    -6.163000000    -2.627000000
H     6.817000000    -7.036000000    -2.693000000
H     5.590000000    -6.238000000    -3.080000000
O     5.810000000    -7.404000000     0.765000000
H     6.753000000    -7.555000000     0.693000000
H     5.689000000    -6.504000000     0.460000000
O     4.855000000    -5.294000000    -6.207000000
H     4.091000000    -5.846000000    -6.372000000
H     4.755000000    -5.013000000    -5.297000000
O    -0.776000000    -4.759000000    -3.719000000
H     0.057000000    -4.841000000    -3.255000000
H    -1.439000000    -4.797000000    -3.029000000
O     0.789000000    -8.405000000    -2.449000000
H    -0.069000000    -8.554000000    -2.051000000
H     0.595000000    -8.177000000    -3.358000000
O     0.204000000    -6.365000000    -5.692000000
H     0.014000000    -5.582000000    -5.175000000
H    -0.323000000    -7.053000000    -5.287000000
O     3.973000000    -5.764000000    -3.504000000
H     3.595000000    -6.638000000    -3.406000000
H     3.543000000    -5.241000000    -2.828000000
O    -3.000000000    -6.331000000    -2.335000000
H    -3.839000000    -6.406000000    -2.789000000
H    -2.845000000    -7.203000000    -1.972000000
