215
-1462.15977
C     4.452000000     0.605000000     1.664000000
H     3.795000000     0.276000000     2.464000000
C     4.199000000     1.757000000     0.901000000
C     4.857000000     1.905000000    -0.307000000
H     4.825000000     2.817000000    -0.898000000
C     3.026000000     2.570000000     1.314000000
O     3.037000000     2.905000000     2.781000000
H     2.148000000     2.015000000     0.952000000
O     3.085000000     3.876000000     0.629000000
C     1.945000000     4.298000000     0.001000000
C     1.805000000     3.916000000    -1.326000000
H     2.573000000     3.293000000    -1.776000000
C     0.555000000     4.061000000    -1.919000000
O     0.465000000     3.650000000    -3.181000000
C    -0.577000000     4.711000000    -1.299000000
C    -1.971000000     4.885000000    -1.852000000
H    -2.482000000     5.698000000    -1.331000000
C    -2.750000000     3.608000000    -1.847000000
C    -3.591000000     3.357000000    -0.809000000
H    -3.745000000     4.048000000     0.017000000
H    -1.861000000     5.231000000    -2.882000000
C    -0.379000000     5.072000000     0.012000000
H    -1.199000000     5.565000000     0.528000000
C     0.847000000     4.798000000     0.692000000
C     0.968000000     5.034000000     2.154000000
H     0.313000000     5.875000000     2.394000000
H     1.973000000     5.414000000     2.353000000
C     0.810000000     3.857000000     3.066000000
C    -0.529000000     3.596000000     3.461000000
H    -1.387000000     4.164000000     3.109000000
C     1.804000000     2.896000000     3.400000000
C     1.512000000     1.730000000     4.137000000
H     2.294000000     0.990000000     4.288000000
C     0.246000000     1.543000000     4.581000000
O    -0.057000000     0.326000000     5.182000000
C    -0.637000000    -0.686000000     4.270000000
C    -0.004000000    -2.052000000     4.407000000
C    -0.629000000    -3.184000000     3.921000000
H    -1.630000000    -3.096000000     3.508000000
C     1.300000000    -2.225000000     4.931000000
H     1.798000000    -1.351000000     5.344000000
O    -2.085000000    -0.742000000     4.506000000
H    -0.501000000    -0.284000000     3.255000000
C    -0.854000000     2.464000000     4.177000000
C    -2.281000000     2.222000000     4.660000000
H    -2.790000000     3.175000000     4.822000000
H    -2.270000000     1.699000000     5.619000000
C    -3.016000000     1.285000000     3.641000000
C    -3.770000000     1.974000000     2.681000000
H    -3.770000000     3.059000000     2.749000000
C    -2.910000000    -0.078000000     3.582000000
C    -3.549000000    -0.793000000     2.596000000
H    -3.528000000    -1.873000000     2.471000000
C    -4.301000000    -0.079000000     1.609000000
O    -4.928000000    -0.712000000     0.625000000
C    -4.337000000    -0.822000000    -0.695000000
C    -4.128000000    -2.233000000    -1.155000000
C    -4.282000000    -3.321000000    -0.303000000
H    -4.622000000    -3.154000000     0.716000000
C    -3.623000000    -2.459000000    -2.481000000
H    -3.403000000    -1.641000000    -3.163000000
O    -4.917000000     0.098000000    -1.561000000
H    -3.327000000    -0.437000000    -0.488000000
C    -4.387000000     1.274000000     1.684000000
C    -5.206000000     2.050000000     0.617000000
H    -5.498000000     3.016000000     1.034000000
H    -6.161000000     1.587000000     0.361000000
C    -4.391000000     2.232000000    -0.685000000
C    -4.266000000     1.264000000    -1.619000000
C    -3.361000000     1.457000000    -2.725000000
H    -3.217000000     0.668000000    -3.458000000
C    -2.647000000     2.707000000    -2.869000000
O    -1.673000000     2.806000000    -3.833000000
C    -0.320000000     2.443000000    -3.453000000
H    -0.285000000     1.892000000    -2.501000000
C     0.305000000     1.662000000    -4.538000000
C     1.706000000     1.678000000    -4.700000000
H     2.320000000     2.394000000    -4.161000000
C    -0.479000000     0.811000000    -5.373000000
H    -1.566000000     0.790000000    -5.347000000
C     0.121000000    -0.031000000    -6.320000000
O    -0.580000000    -0.880000000    -7.106000000
C     1.554000000    -0.091000000    -6.393000000
H     1.999000000    -0.840000000    -7.044000000
C     2.350000000     0.777000000    -5.614000000
O     3.749000000     0.718000000    -5.711000000
C     4.577000000     1.524000000    -4.946000000
C     5.107000000     0.935000000    -3.808000000
H     4.858000000    -0.072000000    -3.482000000
C     4.996000000     2.781000000    -5.424000000
H     4.560000000     3.318000000    -6.262000000
C     5.917000000     3.513000000    -4.673000000
H     6.243000000     4.493000000    -5.012000000
C     6.382000000     2.982000000    -3.489000000
H     7.019000000     3.695000000    -2.971000000
C     5.952000000     1.722000000    -2.976000000
O     6.535000000     1.256000000    -1.828000000
C     5.797000000     0.953000000    -0.736000000
C     6.225000000    -0.030000000     0.105000000
H     7.082000000    -0.635000000    -0.180000000
C     5.523000000    -0.232000000     1.341000000
O     5.886000000    -1.334000000     2.066000000
C     5.479000000    -1.493000000     3.366000000
C     4.436000000    -2.364000000     3.706000000
H     3.876000000    -2.857000000     2.916000000
C     6.228000000    -0.910000000     4.398000000
H     7.011000000    -0.204000000     4.135000000
C     5.930000000    -1.202000000     5.736000000
H     6.498000000    -0.747000000     6.544000000
C     4.947000000    -2.083000000     6.018000000
H     4.788000000    -2.355000000     7.059000000
C     4.167000000    -2.590000000     5.046000000
O     3.172000000    -3.509000000     5.412000000
C     1.921000000    -3.478000000     4.917000000
C     1.267000000    -4.577000000     4.326000000
H     1.738000000    -5.544000000     4.171000000
C    -0.047000000    -4.489000000     3.874000000
O    -0.591000000    -5.697000000     3.408000000
C    -1.927000000    -5.806000000     3.065000000
C    -2.261000000    -5.491000000     1.786000000
H    -1.520000000    -5.176000000     1.056000000
C    -2.810000000    -6.276000000     4.021000000
H    -2.521000000    -6.544000000     5.034000000
C    -4.100000000    -6.583000000     3.671000000
H    -4.793000000    -7.047000000     4.368000000
C    -4.432000000    -6.333000000     2.334000000
H    -5.492000000    -6.429000000     2.112000000
C    -3.565000000    -5.805000000     1.365000000
O    -4.098000000    -5.645000000     0.100000000
C    -3.934000000    -4.547000000    -0.668000000
C    -3.340000000    -4.795000000    -1.913000000
H    -2.901000000    -5.750000000    -2.190000000
C    -3.248000000    -3.761000000    -2.876000000
O    -2.496000000    -4.054000000    -4.068000000
C    -2.595000000    -3.308000000    -5.215000000
C    -3.619000000    -3.498000000    -6.094000000
H    -4.367000000    -4.200000000    -5.733000000
C    -3.682000000    -2.786000000    -7.287000000
H    -4.477000000    -2.971000000    -8.006000000
C    -2.684000000    -1.868000000    -7.472000000
H    -2.823000000    -1.169000000    -8.292000000
C    -1.598000000    -1.743000000    -6.674000000
C    -1.552000000    -2.431000000    -5.502000000
H    -0.740000000    -2.292000000    -4.792000000
C     1.226000000    -2.232000000     0.711000000
H     1.775000000    -2.613000000     1.568000000
C     0.807000000    -0.881000000     0.834000000
H     1.148000000    -0.317000000     1.699000000
C    -0.020000000    -0.310000000    -0.151000000
H    -0.324000000     0.732000000    -0.038000000
C    -0.463000000    -1.153000000    -1.194000000
H    -1.213000000    -0.806000000    -1.900000000
C     0.036000000    -2.490000000    -1.352000000
H    -0.362000000    -3.120000000    -2.144000000
C     0.912000000    -3.032000000    -0.381000000
C     1.408000000    -4.425000000    -0.487000000
O     1.223000000    -5.012000000    -1.531000000
O     2.058000000    -4.964000000     0.376000000
O     5.019000000    -8.694000000    -1.553000000
H     4.626000000    -7.829000000    -1.437000000
H     5.014000000    -9.079000000    -0.677000000
O    -2.034000000    -8.164000000     0.214000000
H    -1.748000000    -7.642000000    -0.536000000
H    -2.636000000    -8.809000000    -0.158000000
O     0.868000000    -5.310000000    -5.414000000
H     0.411000000    -5.630000000    -6.192000000
H     1.428000000    -6.039000000    -5.148000000
O     3.483000000    -2.686000000    -5.710000000
H     4.274000000    -2.753000000    -5.175000000
H     2.764000000    -2.824000000    -5.094000000
O    -0.677000000    -8.690000000     2.790000000
H    -1.299000000    -8.583000000     2.070000000
H    -0.067000000    -7.959000000     2.690000000
O     5.131000000    -6.613000000    -3.638000000
H     5.651000000    -7.391000000    -3.434000000
H     4.795000000    -6.320000000    -2.791000000
O     3.710000000    -8.560000000     2.630000000
H     3.023000000    -8.428000000     1.977000000
H     3.341000000    -8.209000000     3.440000000
O     4.505000000    -5.737000000     1.999000000
H     3.711000000    -6.270000000     1.978000000
H     4.381000000    -5.095000000     1.300000000
O     7.764000000    -3.432000000    -0.946000000
H     6.839000000    -3.221000000    -1.069000000
H     7.772000000    -4.368000000    -0.747000000
O     1.781000000    -7.419000000     1.106000000
H     1.780000000    -7.727000000     0.200000000
H     1.758000000    -6.465000000     1.035000000
O     6.285000000    -7.740000000     1.569000000
H     5.893000000    -8.601000000     1.712000000
H     5.643000000    -7.123000000     1.920000000
O    -0.435000000    -6.953000000    -1.605000000
H    -0.057000000    -7.530000000    -2.268000000
H     0.181000000    -6.223000000    -1.542000000
O     0.447000000    -8.450000000    -3.823000000
H     0.941000000    -7.848000000    -4.379000000
H    -0.189000000    -8.854000000    -4.413000000
O     4.105000000    -6.208000000    -0.999000000
H     3.181000000    -6.262000000    -1.244000000
H     4.326000000    -5.282000000    -1.098000000
O     2.608000000    -7.447000000    -5.202000000
H     2.544000000    -8.376000000    -5.423000000
H     3.540000000    -7.303000000    -5.037000000
O     4.867000000    -3.458000000    -1.423000000
H     5.232000000    -3.659000000    -2.285000000
H     4.270000000    -2.726000000    -1.581000000
O     6.573000000    -5.249000000     3.524000000
H     6.363000000    -5.080000000     4.442000000
H     5.726000000    -5.424000000     3.113000000
O     1.852000000    -3.429000000    -3.677000000
H     1.704000000    -3.926000000    -2.873000000
H     1.489000000    -3.980000000    -4.370000000
O     3.150000000    -1.588000000    -2.207000000
H     2.707000000    -2.151000000    -2.842000000
H     2.439000000    -1.175000000    -1.716000000
