215
-1440.61889
C     5.074000000     0.857000000     1.898000000
H     4.797000000     1.166000000     2.902000000
C     4.385000000     1.445000000     0.819000000
C     4.615000000     1.092000000    -0.492000000
H     4.181000000     1.566000000    -1.368000000
C     3.232000000     2.408000000     1.020000000
O     3.218000000     2.977000000     2.320000000
H     2.263000000     1.932000000     0.811000000
O     3.336000000     3.373000000    -0.016000000
C     2.177000000     3.966000000    -0.466000000
C     1.798000000     3.570000000    -1.733000000
H     2.468000000     2.946000000    -2.318000000
C     0.619000000     3.952000000    -2.334000000
O     0.418000000     3.430000000    -3.577000000
C    -0.363000000     4.601000000    -1.568000000
C    -1.687000000     4.867000000    -2.189000000
H    -2.153000000     5.738000000    -1.722000000
C    -2.586000000     3.713000000    -2.025000000
C    -3.192000000     3.571000000    -0.793000000
H    -3.137000000     4.452000000    -0.159000000
H    -1.613000000     5.260000000    -3.205000000
C    -0.024000000     5.089000000    -0.234000000
H    -0.765000000     5.675000000     0.302000000
C     1.259000000     4.713000000     0.351000000
C     1.431000000     5.111000000     1.832000000
H     0.645000000     5.849000000     2.001000000
H     2.422000000     5.569000000     1.821000000
C     1.177000000     3.999000000     2.832000000
C    -0.068000000     3.864000000     3.388000000
H    -0.798000000     4.646000000     3.195000000
C     2.091000000     2.940000000     2.976000000
C     1.812000000     1.859000000     3.780000000
H     2.578000000     1.121000000     4.005000000
C     0.596000000     1.759000000     4.368000000
O     0.380000000     0.561000000     5.020000000
C    -0.407000000    -0.376000000     4.208000000
C     0.125000000    -1.808000000     4.309000000
C    -0.735000000    -2.913000000     4.182000000
H    -1.800000000    -2.762000000     4.024000000
C     1.508000000    -1.969000000     4.503000000
H     2.143000000    -1.088000000     4.548000000
O    -1.776000000    -0.317000000     4.530000000
H    -0.319000000    -0.144000000     3.137000000
C    -0.415000000     2.706000000     4.117000000
C    -1.849000000     2.571000000     4.679000000
H    -2.260000000     3.583000000     4.669000000
H    -1.892000000     2.255000000     5.723000000
C    -2.712000000     1.779000000     3.809000000
C    -3.433000000     2.419000000     2.777000000
H    -3.282000000     3.470000000     2.542000000
C    -2.626000000     0.385000000     3.743000000
C    -3.510000000    -0.339000000     2.895000000
H    -3.358000000    -1.415000000     2.920000000
C    -4.161000000     0.256000000     1.889000000
O    -4.844000000    -0.499000000     1.005000000
C    -4.239000000    -0.664000000    -0.312000000
C    -4.160000000    -2.137000000    -0.829000000
C    -3.650000000    -3.153000000    -0.060000000
H    -3.480000000    -2.986000000     1.000000000
C    -4.142000000    -2.311000000    -2.230000000
H    -4.348000000    -1.472000000    -2.889000000
O    -4.815000000     0.335000000    -1.235000000
H    -3.170000000    -0.438000000    -0.179000000
C    -4.114000000     1.654000000     1.743000000
C    -4.860000000     2.425000000     0.701000000
H    -5.070000000     3.417000000     1.107000000
H    -5.791000000     1.889000000     0.503000000
C    -4.020000000     2.470000000    -0.590000000
C    -4.127000000     1.466000000    -1.532000000
C    -3.391000000     1.601000000    -2.683000000
H    -3.426000000     0.817000000    -3.435000000
C    -2.608000000     2.672000000    -2.938000000
O    -1.682000000     2.629000000    -3.892000000
C    -0.373000000     2.228000000    -3.668000000
H    -0.416000000     1.682000000    -2.713000000
C     0.145000000     1.198000000    -4.707000000
C     1.500000000     1.095000000    -4.932000000
H     2.189000000     1.727000000    -4.377000000
C    -0.760000000     0.305000000    -5.410000000
H    -1.829000000     0.319000000    -5.214000000
C    -0.266000000    -0.530000000    -6.436000000
O    -1.073000000    -1.355000000    -7.125000000
C     1.128000000    -0.534000000    -6.717000000
H     1.592000000    -1.118000000    -7.508000000
C     1.975000000     0.165000000    -5.901000000
O     3.357000000     0.010000000    -6.123000000
C     4.343000000     0.488000000    -5.260000000
C     4.618000000    -0.196000000    -4.069000000
H     4.099000000    -1.116000000    -3.812000000
C     5.049000000     1.662000000    -5.536000000
H     4.768000000     2.211000000    -6.431000000
C     6.089000000     2.011000000    -4.653000000
H     6.725000000     2.864000000    -4.880000000
C     6.280000000     1.410000000    -3.427000000
H     6.967000000     1.769000000    -2.665000000
C     5.518000000     0.296000000    -3.147000000
O     5.849000000    -0.375000000    -1.968000000
C     5.634000000     0.168000000    -0.728000000
C     6.278000000    -0.515000000     0.332000000
H     6.957000000    -1.283000000    -0.029000000
C     5.964000000    -0.193000000     1.677000000
O     6.578000000    -0.969000000     2.604000000
C     5.939000000    -1.277000000     3.788000000
C     4.941000000    -2.230000000     3.727000000
H     4.729000000    -2.779000000     2.813000000
C     6.227000000    -0.602000000     4.912000000
H     6.913000000     0.240000000     4.864000000
C     5.536000000    -0.923000000     6.111000000
H     5.674000000    -0.401000000     7.054000000
C     4.559000000    -1.874000000     6.138000000
H     4.070000000    -2.131000000     7.074000000
C     4.270000000    -2.479000000     4.969000000
O     3.319000000    -3.433000000     5.071000000
C     1.999000000    -3.241000000     4.681000000
C     1.150000000    -4.363000000     4.655000000
H     1.502000000    -5.348000000     4.949000000
C    -0.205000000    -4.178000000     4.396000000
O    -1.006000000    -5.353000000     4.521000000
C    -2.029000000    -5.672000000     3.665000000
C    -1.901000000    -5.393000000     2.285000000
H    -0.981000000    -4.984000000     1.877000000
C    -3.216000000    -6.204000000     4.148000000
H    -3.251000000    -6.252000000     5.233000000
C    -4.367000000    -6.326000000     3.326000000
H    -5.298000000    -6.652000000     3.782000000
C    -4.279000000    -6.061000000     1.914000000
H    -5.155000000    -6.245000000     1.298000000
C    -3.023000000    -5.629000000     1.463000000
O    -2.812000000    -5.431000000     0.107000000
C    -3.426000000    -4.398000000    -0.548000000
C    -3.500000000    -4.579000000    -1.902000000
H    -3.515000000    -5.591000000    -2.298000000
C    -3.888000000    -3.554000000    -2.768000000
O    -3.778000000    -3.911000000    -4.094000000
C    -3.724000000    -2.969000000    -5.118000000
C    -4.856000000    -2.336000000    -5.563000000
H    -5.807000000    -2.616000000    -5.119000000
C    -4.712000000    -1.403000000    -6.520000000
H    -5.560000000    -0.931000000    -7.010000000
C    -3.446000000    -1.103000000    -7.084000000
H    -3.484000000    -0.503000000    -7.990000000
C    -2.300000000    -1.790000000    -6.705000000
C    -2.456000000    -2.811000000    -5.787000000
H    -1.597000000    -3.356000000    -5.403000000
C     1.466000000    -2.432000000     0.908000000
H     2.370000000    -2.733000000     1.431000000
C     1.100000000    -1.134000000     1.002000000
H     1.592000000    -0.609000000     1.816000000
C     0.017000000    -0.624000000     0.344000000
H    -0.329000000     0.365000000     0.485000000
C    -0.575000000    -1.420000000    -0.637000000
H    -1.332000000    -1.087000000    -1.342000000
C    -0.119000000    -2.755000000    -0.921000000
H    -0.560000000    -3.316000000    -1.740000000
C     0.852000000    -3.275000000    -0.076000000
C     1.370000000    -4.706000000    -0.192000000
O     0.779000000    -5.415000000    -1.004000000
O     2.301000000    -5.091000000     0.464000000
O     5.533000000    -7.505000000     0.252000000
H     6.298000000    -8.059000000     0.098000000
H     5.879000000    -6.612000000     0.244000000
O     1.159000000    -8.009000000     3.791000000
H     2.064000000    -7.701000000     3.746000000
H     0.786000000    -7.549000000     4.543000000
O     2.488000000    -5.132000000    -4.877000000
H     3.089000000    -4.782000000    -4.219000000
H     1.638000000    -5.151000000    -4.439000000
O     4.135000000    -6.512000000     5.066000000
H     5.073000000    -6.701000000     5.034000000
H     4.000000000    -5.856000000     4.382000000
O     5.192000000    -4.447000000    -0.222000000
H     4.279000000    -4.658000000    -0.030000000
H     5.168000000    -4.046000000    -1.091000000
O     3.706000000    -6.301000000     2.282000000
H     4.260000000    -6.933000000     1.824000000
H     3.335000000    -5.759000000     1.586000000
O     0.925000000    -8.207000000     0.951000000
H     0.987000000    -7.450000000     0.369000000
H     1.060000000    -7.846000000     1.827000000
O    -2.841000000    -9.056000000     0.132000000
H    -2.610000000    -9.236000000     1.043000000
H    -2.101000000    -8.553000000    -0.208000000
O     1.640000000    -9.933000000    -2.457000000
H     2.180000000    -9.215000000    -2.128000000
H     1.176000000   -10.257000000    -1.685000000
O     3.174000000    -7.513000000    -1.504000000
H     3.821000000    -7.524000000    -0.799000000
H     2.659000000    -6.722000000    -1.345000000
O    -1.017000000    -7.437000000    -1.129000000
H    -0.375000000    -6.728000000    -1.082000000
H    -1.516000000    -7.256000000    -1.925000000
O     4.306000000    -8.446000000    -3.754000000
H     4.607000000    -7.691000000    -4.260000000
H     4.050000000    -8.081000000    -2.908000000
O     3.816000000    -3.796000000    -2.865000000
H     4.515000000    -3.600000000    -3.489000000
H     3.535000000    -2.939000000    -2.544000000
O     3.079000000    -9.989000000     1.230000000
H     2.407000000    -9.383000000     0.918000000
H     3.433000000   -10.384000000     0.433000000
O     6.868000000    -5.256000000     1.715000000
H     6.723000000    -4.785000000     2.536000000
H     6.310000000    -4.807000000     1.080000000
O     0.191000000    -5.046000000    -3.538000000
H     0.388000000    -5.224000000    -2.619000000
H    -0.580000000    -5.581000000    -3.727000000
O    -1.652000000    -6.968000000    -4.295000000
H    -0.854000000    -7.425000000    -4.559000000
H    -1.973000000    -6.562000000    -5.100000000
O    -0.006000000   -10.450000000    -0.454000000
H    -0.255000000    -9.540000000    -0.298000000
H    -0.312000000   -10.918000000     0.323000000
O     2.469000000    -0.945000000    -1.748000000
H     1.554000000    -1.175000000    -1.908000000
H     2.572000000    -1.017000000    -0.799000000
