215
-1467.86779
C     4.116000000     1.710000000     2.910000000
H     3.670000000     1.963000000     3.868000000
C     3.592000000     2.248000000     1.730000000
C     4.197000000     1.963000000     0.531000000
H     3.888000000     2.435000000    -0.399000000
C     2.324000000     3.157000000     1.684000000
O     1.880000000     3.602000000     2.991000000
H     1.566000000     2.497000000     1.237000000
O     2.416000000     4.315000000     0.815000000
C     1.300000000     4.474000000     0.022000000
C     1.513000000     4.096000000    -1.306000000
H     2.462000000     3.673000000    -1.624000000
C     0.446000000     4.006000000    -2.204000000
O     0.674000000     3.506000000    -3.462000000
C    -0.822000000     4.443000000    -1.748000000
C    -1.993000000     4.456000000    -2.750000000
H    -2.729000000     5.212000000    -2.469000000
C    -2.611000000     3.060000000    -2.782000000
C    -3.664000000     2.837000000    -1.943000000
H    -3.998000000     3.648000000    -1.300000000
H    -1.834000000     4.717000000    -3.798000000
C    -0.991000000     4.925000000    -0.397000000
H    -1.967000000     5.166000000     0.018000000
C     0.062000000     4.956000000     0.481000000
C    -0.103000000     5.357000000     1.918000000
H    -0.886000000     6.117000000     1.962000000
H     0.816000000     5.786000000     2.324000000
C    -0.459000000     4.174000000     2.836000000
C    -1.767000000     3.816000000     3.050000000
H    -2.557000000     4.421000000     2.613000000
C     0.567000000     3.362000000     3.391000000
C     0.219000000     2.259000000     4.141000000
H     0.972000000     1.578000000     4.529000000
C    -1.062000000     1.948000000     4.388000000
O    -1.325000000     0.679000000     4.930000000
C    -1.547000000    -0.463000000     4.022000000
C    -0.622000000    -1.605000000     4.401000000
C    -0.874000000    -2.817000000     3.777000000
H    -1.638000000    -2.814000000     3.003000000
C     0.369000000    -1.492000000     5.359000000
H     0.513000000    -0.519000000     5.821000000
O    -2.944000000    -0.777000000     3.849000000
H    -1.220000000    -0.132000000     3.026000000
C    -2.135000000     2.681000000     3.782000000
C    -3.553000000     2.285000000     3.777000000
H    -4.221000000     3.147000000     3.734000000
H    -3.657000000     1.950000000     4.812000000
C    -3.927000000     1.241000000     2.719000000
C    -4.469000000     1.662000000     1.514000000
H    -4.551000000     2.740000000     1.407000000
C    -3.666000000    -0.189000000     2.806000000
C    -4.054000000    -1.073000000     1.798000000
H    -3.894000000    -2.136000000     1.953000000
C    -4.644000000    -0.605000000     0.611000000
O    -4.876000000    -1.566000000    -0.435000000
C    -3.952000000    -1.614000000    -1.562000000
C    -3.654000000    -3.036000000    -2.067000000
C    -3.556000000    -4.038000000    -1.095000000
H    -3.868000000    -3.853000000    -0.070000000
C    -3.218000000    -3.234000000    -3.413000000
H    -3.115000000    -2.388000000    -4.088000000
O    -4.269000000    -0.738000000    -2.681000000
H    -2.959000000    -1.330000000    -1.185000000
C    -4.789000000     0.771000000     0.433000000
C    -5.369000000     1.357000000    -0.792000000
H    -5.925000000     2.255000000    -0.515000000
H    -6.081000000     0.734000000    -1.336000000
C    -4.250000000     1.572000000    -1.814000000
C    -3.799000000     0.565000000    -2.686000000
C    -2.724000000     0.765000000    -3.541000000
H    -2.436000000    -0.108000000    -4.120000000
C    -2.162000000     2.085000000    -3.672000000
O    -1.046000000     2.195000000    -4.481000000
C     0.243000000     2.208000000    -3.780000000
H     0.199000000     1.658000000    -2.829000000
C     1.269000000     1.420000000    -4.623000000
C     2.640000000     1.689000000    -4.751000000
H     3.024000000     2.621000000    -4.343000000
C     0.806000000     0.160000000    -5.123000000
H    -0.230000000    -0.098000000    -4.922000000
C     1.712000000    -0.723000000    -5.664000000
O     1.390000000    -1.917000000    -6.246000000
C     3.034000000    -0.455000000    -5.725000000
H     3.796000000    -1.065000000    -6.203000000
C     3.519000000     0.748000000    -5.207000000
O     4.847000000     0.979000000    -5.210000000
C     5.521000000     1.447000000    -4.120000000
C     5.157000000     0.853000000    -2.916000000
H     4.443000000     0.034000000    -2.951000000
C     6.574000000     2.338000000    -4.210000000
H     6.853000000     2.772000000    -5.167000000
C     7.321000000     2.648000000    -3.072000000
H     8.193000000     3.296000000    -3.091000000
C     6.923000000     2.169000000    -1.815000000
H     7.591000000     2.302000000    -0.968000000
C     5.853000000     1.234000000    -1.772000000
O     5.670000000     0.496000000    -0.641000000
C     5.290000000     1.092000000     0.549000000
C     5.698000000     0.503000000     1.728000000
H     6.466000000    -0.256000000     1.602000000
C     5.149000000     0.796000000     2.957000000
O     5.576000000     0.066000000     4.038000000
C     4.802000000    -0.225000000     5.149000000
C     3.944000000    -1.343000000     5.148000000
H     3.892000000    -2.036000000     4.312000000
C     4.957000000     0.541000000     6.295000000
H     5.565000000     1.439000000     6.222000000
C     4.331000000     0.171000000     7.454000000
H     4.426000000     0.691000000     8.404000000
C     3.462000000    -0.922000000     7.503000000
H     2.995000000    -1.183000000     8.449000000
C     3.240000000    -1.644000000     6.317000000
O     2.262000000    -2.521000000     6.493000000
C     1.207000000    -2.586000000     5.595000000
C     0.958000000    -3.792000000     4.971000000
H     1.611000000    -4.624000000     5.222000000
C    -0.152000000    -3.906000000     4.127000000
O    -0.385000000    -5.097000000     3.569000000
C    -1.509000000    -5.402000000     2.900000000
C    -1.570000000    -5.586000000     1.513000000
H    -0.661000000    -5.497000000     0.923000000
C    -2.611000000    -5.805000000     3.695000000
H    -2.396000000    -5.804000000     4.760000000
C    -3.703000000    -6.326000000     3.100000000
H    -4.476000000    -6.783000000     3.712000000
C    -3.771000000    -6.456000000     1.697000000
H    -4.612000000    -6.973000000     1.242000000
C    -2.724000000    -5.988000000     0.918000000
O    -2.804000000    -6.238000000    -0.470000000
C    -2.986000000    -5.280000000    -1.441000000
C    -2.671000000    -5.534000000    -2.795000000
H    -2.214000000    -6.490000000    -3.036000000
C    -2.708000000    -4.480000000    -3.770000000
O    -2.162000000    -4.790000000    -5.052000000
C    -1.676000000    -3.799000000    -5.820000000
C    -2.504000000    -3.184000000    -6.758000000
H    -3.505000000    -3.597000000    -6.853000000
C    -2.039000000    -2.132000000    -7.627000000
H    -2.688000000    -1.598000000    -8.316000000
C    -0.683000000    -1.772000000    -7.489000000
H    -0.234000000    -0.882000000    -7.921000000
C     0.131000000    -2.403000000    -6.517000000
C    -0.334000000    -3.424000000    -5.676000000
H     0.278000000    -3.802000000    -4.861000000
C     1.234000000    -1.902000000     0.700000000
H     1.816000000    -2.369000000     1.491000000
C     0.618000000    -0.662000000     0.680000000
H     0.862000000    -0.004000000     1.510000000
C    -0.379000000    -0.352000000    -0.222000000
H    -0.820000000     0.697000000    -0.127000000
C    -0.674000000    -1.168000000    -1.287000000
H    -1.366000000    -0.809000000    -2.045000000
C    -0.018000000    -2.412000000    -1.316000000
H    -0.065000000    -3.048000000    -2.196000000
C     0.907000000    -2.800000000    -0.345000000
C     1.273000000    -4.223000000    -0.365000000
O     1.266000000    -4.894000000    -1.352000000
O     1.676000000    -4.762000000     0.688000000
O     2.674000000    -1.511000000    -2.224000000
H     1.800000000    -1.421000000    -1.843000000
H     2.516000000    -1.836000000    -3.110000000
O     5.104000000    -3.447000000    -4.094000000
H     4.199000000    -3.737000000    -3.978000000
H     5.493000000    -3.523000000    -3.223000000
O     0.298000000    -7.798000000     0.269000000
H     0.780000000    -6.985000000     0.418000000
H    -0.122000000    -7.676000000    -0.582000000
O     5.888000000    -3.806000000     4.459000000
H     6.654000000    -4.266000000     4.115000000
H     5.160000000    -4.118000000     3.921000000
O     7.305000000    -6.398000000    -2.431000000
H     6.866000000    -5.667000000    -1.995000000
H     7.226000000    -6.202000000    -3.364000000
O    -0.381000000    -6.523000000    -6.270000000
H    -1.302000000    -6.648000000    -6.497000000
H    -0.397000000    -6.219000000    -5.363000000
O     2.459000000    -7.930000000    -3.889000000
H     3.165000000    -8.212000000    -3.308000000
H     2.594000000    -8.432000000    -4.692000000
O     4.469000000    -1.997000000    -0.191000000
H     3.732000000    -1.921000000    -0.797000000
H     4.989000000    -1.208000000    -0.347000000
O     4.087000000    -5.942000000    -0.716000000
H     3.192000000    -5.720000000    -0.459000000
H     3.996000000    -6.743000000    -1.233000000
O     5.974000000    -6.303000000     2.030000000
H     5.416000000    -5.586000000     1.730000000
H     6.796000000    -5.879000000     2.278000000
O     3.997000000    -3.946000000     1.809000000
H     4.167000000    -3.208000000     1.224000000
H     3.157000000    -4.297000000     1.514000000
O     2.657000000    -4.690000000    -3.597000000
H     2.431000000    -5.600000000    -3.787000000
H     2.208000000    -4.498000000    -2.774000000
O     0.278000000   -10.478000000     0.828000000
H    -0.343000000   -10.811000000     0.180000000
H     0.218000000    -9.526000000     0.749000000
O     5.857000000    -3.943000000    -1.261000000
H     5.584000000    -3.059000000    -1.017000000
H     5.117000000    -4.498000000    -1.014000000
O     4.796000000    -9.383000000    -0.284000000
H     4.342000000    -8.992000000     0.463000000
H     5.642000000    -9.659000000     0.068000000
O    -3.467000000    -8.618000000    -1.974000000
H    -4.401000000    -8.812000000    -1.895000000
H    -3.409000000    -7.669000000    -1.864000000
O     0.179000000    -6.961000000    -2.573000000
H     0.341000000    -6.076000000    -2.247000000
H     1.041000000    -7.276000000    -2.846000000
O     1.643000000    -6.860000000     2.644000000
H     0.849000000    -6.739000000     3.165000000
H     1.738000000    -6.041000000     2.158000000
O     3.896000000    -8.213000000     1.904000000
H     2.973000000    -7.980000000     2.005000000
H     4.373000000    -7.441000000     2.208000000
