215
-1433.61690
C     4.283000000     2.228000000     3.030000000
H     3.920000000     2.652000000     3.963000000
C     3.782000000     2.469000000     1.762000000
C     4.281000000     1.779000000     0.696000000
H     3.808000000     1.989000000    -0.260000000
C     2.524000000     3.371000000     1.636000000
O     1.980000000     3.901000000     2.859000000
H     1.830000000     2.588000000     1.298000000
O     2.713000000     4.337000000     0.516000000
C     1.604000000     4.483000000    -0.379000000
C     1.721000000     3.960000000    -1.627000000
H     2.622000000     3.511000000    -2.038000000
C     0.698000000     3.898000000    -2.567000000
O     0.929000000     3.100000000    -3.715000000
C    -0.485000000     4.513000000    -2.276000000
C    -1.649000000     4.462000000    -3.159000000
H    -2.392000000     5.196000000    -2.839000000
C    -2.350000000     3.089000000    -3.043000000
C    -3.457000000     3.047000000    -2.142000000
H    -3.575000000     3.894000000    -1.470000000
H    -1.396000000     4.620000000    -4.209000000
C    -0.627000000     5.057000000    -0.989000000
H    -1.603000000     5.464000000    -0.735000000
C     0.352000000     5.033000000     0.012000000
C    -0.135000000     5.512000000     1.374000000
H    -0.991000000     6.157000000     1.166000000
H     0.699000000     6.086000000     1.783000000
C    -0.372000000     4.385000000     2.352000000
C    -1.725000000     4.091000000     2.556000000
H    -2.496000000     4.724000000     2.125000000
C     0.633000000     3.710000000     3.023000000
C     0.323000000     2.588000000     3.758000000
H     1.056000000     1.910000000     4.188000000
C    -1.001000000     2.229000000     3.974000000
O    -1.338000000     1.074000000     4.645000000
C    -1.566000000    -0.091000000     3.752000000
C    -0.828000000    -1.391000000     4.134000000
C    -1.229000000    -2.609000000     3.579000000
H    -2.202000000    -2.645000000     3.096000000
C     0.458000000    -1.325000000     4.765000000
H     0.848000000    -0.342000000     5.014000000
O    -2.928000000    -0.390000000     3.659000000
H    -1.184000000     0.216000000     2.767000000
C    -2.035000000     2.932000000     3.310000000
C    -3.473000000     2.575000000     3.524000000
H    -4.140000000     3.440000000     3.513000000
H    -3.661000000     2.114000000     4.496000000
C    -3.927000000     1.579000000     2.501000000
C    -4.439000000     2.049000000     1.315000000
H    -4.705000000     3.093000000     1.164000000
C    -3.713000000     0.203000000     2.679000000
C    -4.059000000    -0.716000000     1.648000000
H    -3.934000000    -1.794000000     1.699000000
C    -4.537000000    -0.206000000     0.490000000
O    -4.833000000    -1.116000000    -0.344000000
C    -3.949000000    -1.251000000    -1.447000000
C    -3.690000000    -2.746000000    -1.814000000
C    -3.902000000    -3.706000000    -0.774000000
H    -4.257000000    -3.433000000     0.217000000
C    -3.326000000    -3.176000000    -3.092000000
H    -3.158000000    -2.481000000    -3.910000000
O    -4.322000000    -0.488000000    -2.589000000
H    -2.964000000    -0.932000000    -1.076000000
C    -4.756000000     1.136000000     0.255000000
C    -5.299000000     1.687000000    -1.056000000
H    -5.707000000     2.673000000    -0.824000000
H    -6.074000000     1.139000000    -1.596000000
C    -4.182000000     1.850000000    -2.057000000
C    -3.782000000     0.764000000    -2.785000000
C    -2.639000000     0.763000000    -3.515000000
H    -2.244000000    -0.131000000    -3.991000000
C    -1.972000000     1.932000000    -3.753000000
O    -0.850000000     1.856000000    -4.563000000
C     0.387000000     1.776000000    -3.881000000
H     0.242000000     1.400000000    -2.858000000
C     1.403000000     0.841000000    -4.550000000
C     2.757000000     1.143000000    -4.590000000
H     3.107000000     2.147000000    -4.366000000
C     0.969000000    -0.433000000    -4.943000000
H    -0.079000000    -0.721000000    -4.918000000
C     1.965000000    -1.401000000    -5.299000000
O     1.579000000    -2.748000000    -5.267000000
C     3.326000000    -1.118000000    -5.209000000
H     4.111000000    -1.862000000    -5.314000000
C     3.669000000     0.144000000    -4.888000000
O     5.035000000     0.359000000    -4.848000000
C     5.647000000     0.908000000    -3.804000000
C     5.619000000     0.285000000    -2.558000000
H     5.139000000    -0.678000000    -2.404000000
C     6.107000000     2.207000000    -3.867000000
H     6.089000000     2.733000000    -4.818000000
C     6.569000000     2.854000000    -2.674000000
H     6.905000000     3.887000000    -2.640000000
C     6.659000000     2.224000000    -1.466000000
H     6.940000000     2.588000000    -0.481000000
C     6.101000000     0.964000000    -1.439000000
O     5.969000000     0.336000000    -0.265000000
C     5.336000000     0.918000000     0.847000000
C     5.840000000     0.697000000     2.106000000
H     6.681000000     0.026000000     2.255000000
C     5.284000000     1.333000000     3.209000000
O     5.664000000     1.033000000     4.441000000
C     4.912000000     0.312000000     5.337000000
C     4.051000000    -0.694000000     4.941000000
H     4.079000000    -0.885000000     3.871000000
C     4.918000000     0.753000000     6.637000000
H     5.669000000     1.467000000     6.966000000
C     4.092000000     0.093000000     7.536000000
H     4.171000000     0.401000000     8.575000000
C     3.308000000    -1.022000000     7.186000000
H     2.724000000    -1.543000000     7.941000000
C     3.265000000    -1.368000000     5.828000000
O     2.534000000    -2.426000000     5.305000000
C     1.249000000    -2.434000000     4.879000000
C     0.794000000    -3.636000000     4.393000000
H     1.343000000    -4.573000000     4.355000000
C    -0.435000000    -3.742000000     3.812000000
O    -0.775000000    -5.050000000     3.487000000
C    -1.997000000    -5.436000000     2.982000000
C    -2.292000000    -5.381000000     1.631000000
H    -1.624000000    -4.966000000     0.880000000
C    -2.870000000    -5.966000000     3.881000000
H    -2.622000000    -5.957000000     4.939000000
C    -4.071000000    -6.502000000     3.488000000
H    -4.783000000    -6.921000000     4.195000000
C    -4.412000000    -6.384000000     2.131000000
H    -5.403000000    -6.689000000     1.805000000
C    -3.483000000    -5.977000000     1.175000000
O    -3.916000000    -5.993000000    -0.090000000
C    -3.643000000    -5.016000000    -1.030000000
C    -3.223000000    -5.436000000    -2.276000000
H    -3.007000000    -6.493000000    -2.412000000
C    -3.052000000    -4.530000000    -3.309000000
O    -2.543000000    -5.007000000    -4.446000000
C    -1.780000000    -4.273000000    -5.224000000
C    -2.050000000    -4.205000000    -6.588000000
H    -2.931000000    -4.699000000    -6.989000000
C    -1.184000000    -3.600000000    -7.494000000
H    -1.405000000    -3.482000000    -8.552000000
C     0.010000000    -3.193000000    -7.041000000
H     0.608000000    -2.611000000    -7.737000000
C     0.375000000    -3.253000000    -5.679000000
C    -0.493000000    -3.821000000    -4.752000000
H    -0.110000000    -3.890000000    -3.737000000
C     1.291000000    -1.884000000     1.351000000
H     1.955000000    -2.240000000     2.134000000
C     0.708000000    -0.588000000     1.345000000
H     0.936000000     0.159000000     2.101000000
C    -0.085000000    -0.232000000     0.292000000
H    -0.514000000     0.751000000     0.259000000
C    -0.374000000    -1.193000000    -0.703000000
H    -1.076000000    -0.943000000    -1.494000000
C     0.090000000    -2.445000000    -0.677000000
H    -0.184000000    -3.194000000    -1.415000000
C     0.877000000    -2.877000000     0.441000000
C     1.379000000    -4.332000000     0.439000000
O     1.099000000    -5.083000000    -0.434000000
O     2.002000000    -4.718000000     1.476000000
O     4.167000000    -3.194000000    -1.624000000
H     4.095000000    -3.058000000    -2.569000000
H     4.014000000    -4.131000000    -1.504000000
O    -2.358000000    -9.097000000    -0.695000000
H    -1.850000000    -8.286000000    -0.669000000
H    -3.128000000    -8.914000000    -0.156000000
O     4.458000000    -4.252000000     5.790000000
H     4.186000000    -3.362000000     5.564000000
H     4.733000000    -4.637000000     4.958000000
O     0.752000000    -8.049000000    -3.156000000
H     1.610000000    -8.438000000    -2.988000000
H     0.820000000    -7.690000000    -4.041000000
O     1.203000000    -6.226000000     7.001000000
H     0.690000000    -6.393000000     6.210000000
H     1.011000000    -6.971000000     7.572000000
O     3.297000000    -8.629000000    -2.283000000
H     4.218000000    -8.624000000    -2.545000000
H     3.267000000    -9.210000000    -1.523000000
O     4.744000000    -4.857000000    -4.038000000
H     5.448000000    -5.215000000    -3.495000000
H     3.942000000    -5.081000000    -3.567000000
O     5.505000000    -2.473000000     1.038000000
H     5.211000000    -2.304000000     0.143000000
H     6.333000000    -1.999000000     1.111000000
O     6.149000000    -8.082000000    -2.567000000
H     6.286000000    -7.370000000    -1.943000000
H     6.113000000    -8.871000000    -2.027000000
O     4.179000000    -5.952000000     0.253000000
H     4.705000000    -5.203000000     0.534000000
H     3.280000000    -5.711000000     0.479000000
O     5.810000000    -7.186000000     2.846000000
H     5.444000000    -6.349000000     2.564000000
H     5.173000000    -7.527000000     3.474000000
O     4.544000000    -4.655000000     3.107000000
H     4.998000000    -3.942000000     2.657000000
H     3.663000000    -4.653000000     2.731000000
O     2.473000000    -5.602000000    -2.695000000
H     2.297000000    -6.543000000    -2.701000000
H     1.903000000    -5.256000000    -2.009000000
O     1.740000000    -9.616000000     2.889000000
H     1.942000000    -9.280000000     3.762000000
H     1.345000000    -8.873000000     2.432000000
O     3.986000000    -7.796000000    -5.262000000
H     4.871000000    -8.041000000    -5.532000000
H     4.085000000    -7.494000000    -4.360000000
O    -0.121000000    -7.416000000     5.089000000
H    -0.371000000    -7.056000000     4.238000000
H    -0.949000000    -7.684000000     5.489000000
O    -0.463000000    -7.149000000    -0.780000000
H     0.010000000    -6.363000000    -0.507000000
H     0.037000000    -7.482000000    -1.526000000
O     0.749000000    -7.421000000     1.869000000
H     1.094000000    -6.535000000     1.976000000
H     0.297000000    -7.403000000     1.025000000
O     5.001000000    -8.624000000     0.207000000
H     4.983000000    -7.738000000    -0.157000000
H     4.948000000    -8.495000000     1.154000000
