215
-1435.74150
C     4.385000000     0.451000000     3.026000000
H     3.890000000     0.321000000     3.985000000
C     4.129000000     1.456000000     2.021000000
C     4.781000000     1.458000000     0.775000000
H     4.592000000     2.060000000    -0.110000000
C     2.892000000     2.328000000     2.164000000
O     2.506000000     2.624000000     3.557000000
H     2.072000000     1.710000000     1.768000000
O     3.031000000     3.539000000     1.382000000
C     1.986000000     4.004000000     0.629000000
C     2.038000000     3.849000000    -0.721000000
H     2.884000000     3.361000000    -1.200000000
C     0.909000000     4.225000000    -1.506000000
O     0.943000000     3.829000000    -2.829000000
C    -0.296000000     4.663000000    -0.886000000
C    -1.487000000     5.033000000    -1.705000000
H    -2.125000000     5.729000000    -1.156000000
C    -2.390000000     3.811000000    -1.951000000
C    -3.439000000     3.543000000    -1.010000000
H    -3.622000000     4.263000000    -0.217000000
H    -1.324000000     5.571000000    -2.640000000
C    -0.303000000     4.837000000     0.501000000
H    -1.196000000     5.195000000     1.007000000
C     0.802000000     4.555000000     1.251000000
C     0.816000000     4.719000000     2.756000000
H     0.049000000     5.451000000     3.016000000
H     1.747000000     5.071000000     3.206000000
C     0.271000000     3.441000000     3.395000000
C    -1.134000000     3.265000000     3.468000000
H    -1.756000000     4.084000000     3.115000000
C     1.192000000     2.468000000     3.899000000
C     0.741000000     1.281000000     4.317000000
H     1.396000000     0.440000000     4.526000000
C    -0.671000000     1.024000000     4.381000000
O    -0.966000000    -0.183000000     4.843000000
C    -1.471000000    -1.093000000     3.860000000
C    -0.897000000    -2.495000000     4.042000000
C    -1.548000000    -3.608000000     3.663000000
H    -2.424000000    -3.519000000     3.024000000
C     0.337000000    -2.609000000     4.744000000
H     0.857000000    -1.738000000     5.135000000
O    -2.928000000    -1.092000000     3.908000000
H    -0.986000000    -0.724000000     2.944000000
C    -1.583000000     2.037000000     4.085000000
C    -3.050000000     1.760000000     4.209000000
H    -3.488000000     2.757000000     4.293000000
H    -3.256000000     1.272000000     5.164000000
C    -3.579000000     1.080000000     2.960000000
C    -4.181000000     1.806000000     1.966000000
H    -4.285000000     2.881000000     2.093000000
C    -3.526000000    -0.338000000     2.895000000
C    -4.040000000    -1.018000000     1.822000000
H    -3.922000000    -2.098000000     1.852000000
C    -4.698000000    -0.264000000     0.814000000
O    -4.909000000    -0.982000000    -0.387000000
C    -3.999000000    -0.676000000    -1.452000000
C    -3.505000000    -1.974000000    -2.174000000
C    -3.081000000    -3.019000000    -1.398000000
H    -2.952000000    -2.891000000    -0.326000000
C    -3.358000000    -2.006000000    -3.472000000
H    -3.782000000    -1.248000000    -4.126000000
O    -4.556000000     0.309000000    -2.382000000
H    -3.096000000    -0.329000000    -0.928000000
C    -4.777000000     1.137000000     0.893000000
C    -5.355000000     2.078000000    -0.201000000
H    -5.781000000     2.986000000     0.233000000
H    -6.113000000     1.552000000    -0.785000000
C    -4.293000000     2.475000000    -1.190000000
C    -3.985000000     1.555000000    -2.261000000
C    -2.957000000     1.801000000    -3.148000000
H    -2.729000000     1.088000000    -3.937000000
C    -2.152000000     2.953000000    -2.989000000
O    -1.080000000     3.028000000    -3.855000000
C     0.228000000     2.666000000    -3.267000000
H    -0.009000000     2.033000000    -2.399000000
C     1.130000000     1.842000000    -4.174000000
C     2.548000000     1.907000000    -4.138000000
H     3.071000000     2.484000000    -3.380000000
C     0.538000000     1.005000000    -5.109000000
H    -0.545000000     0.929000000    -5.159000000
C     1.303000000     0.349000000    -6.153000000
O     0.807000000    -0.468000000    -7.109000000
C     2.717000000     0.508000000    -6.135000000
H     3.360000000     0.010000000    -6.856000000
C     3.318000000     1.281000000    -5.131000000
O     4.694000000     1.401000000    -5.136000000
C     5.415000000     1.783000000    -4.008000000
C     5.552000000     0.903000000    -2.921000000
H     5.080000000    -0.076000000    -2.953000000
C     6.043000000     3.010000000    -4.058000000
H     5.945000000     3.616000000    -4.955000000
C     6.734000000     3.482000000    -2.915000000
H     7.156000000     4.483000000    -2.884000000
C     6.785000000     2.668000000    -1.777000000
H     7.406000000     2.969000000    -0.937000000
C     6.318000000     1.341000000    -1.796000000
O     6.523000000     0.479000000    -0.701000000
C     5.838000000     0.566000000     0.585000000
C     6.104000000    -0.427000000     1.560000000
H     6.971000000    -1.059000000     1.386000000
C     5.344000000    -0.538000000     2.762000000
O     5.589000000    -1.578000000     3.661000000
C     4.855000000    -1.803000000     4.797000000
C     3.781000000    -2.700000000     4.698000000
H     3.666000000    -3.173000000     3.726000000
C     5.256000000    -1.302000000     6.062000000
H     6.234000000    -0.836000000     6.151000000
C     4.541000000    -1.627000000     7.215000000
H     4.738000000    -1.147000000     8.171000000
C     3.400000000    -2.469000000     7.083000000
H     2.694000000    -2.686000000     7.880000000
C     3.070000000    -3.021000000     5.863000000
O     2.058000000    -3.996000000     5.828000000
C     0.864000000    -3.877000000     5.044000000
C     0.080000000    -5.041000000     4.720000000
H     0.478000000    -5.980000000     5.094000000
C    -1.135000000    -4.875000000     3.988000000
O    -1.847000000    -5.990000000     3.601000000
C    -2.577000000    -6.070000000     2.450000000
C    -2.005000000    -5.725000000     1.139000000
H    -0.954000000    -5.469000000     1.036000000
C    -3.892000000    -6.465000000     2.491000000
H    -4.314000000    -6.796000000     3.436000000
C    -4.639000000    -6.433000000     1.339000000
H    -5.657000000    -6.785000000     1.487000000
C    -4.134000000    -6.224000000     0.072000000
H    -4.787000000    -6.324000000    -0.791000000
C    -2.801000000    -5.792000000    -0.032000000
O    -2.267000000    -5.295000000    -1.216000000
C    -2.599000000    -4.172000000    -1.988000000
C    -2.637000000    -4.279000000    -3.349000000
H    -2.312000000    -5.163000000    -3.892000000
C    -3.008000000    -3.161000000    -4.079000000
O    -2.906000000    -3.302000000    -5.464000000
C    -2.383000000    -2.308000000    -6.300000000
C    -3.154000000    -1.844000000    -7.375000000
H    -4.159000000    -2.233000000    -7.516000000
C    -2.591000000    -0.972000000    -8.356000000
H    -3.161000000    -0.626000000    -9.214000000
C    -1.240000000    -0.578000000    -8.227000000
H    -0.840000000    -0.119000000    -9.128000000
C    -0.477000000    -0.975000000    -7.147000000
C    -1.064000000    -1.879000000    -6.223000000
H    -0.370000000    -2.381000000    -5.554000000
C     1.526000000    -2.482000000     0.872000000
H     2.293000000    -2.962000000     1.475000000
C     1.053000000    -1.207000000     1.187000000
H     1.342000000    -0.757000000     2.133000000
C     0.295000000    -0.490000000     0.253000000
H    -0.002000000     0.515000000     0.544000000
C    -0.105000000    -1.101000000    -0.911000000
H    -0.731000000    -0.684000000    -1.695000000
C     0.379000000    -2.393000000    -1.244000000
H     0.213000000    -2.750000000    -2.257000000
C     1.122000000    -3.144000000    -0.313000000
C     1.704000000    -4.474000000    -0.631000000
O     1.247000000    -5.161000000    -1.504000000
O     2.499000000    -4.935000000     0.122000000
O     1.935000000    -4.727000000    -4.097000000
H     1.607000000    -5.061000000    -3.262000000
H     2.054000000    -3.788000000    -3.949000000
O     4.935000000    -5.831000000    -0.501000000
H     5.177000000    -5.201000000    -1.179000000
H     3.997000000    -5.692000000    -0.369000000
O     4.391000000   -10.828000000     0.460000000
H     3.594000000   -10.913000000    -0.063000000
H     4.533000000    -9.883000000     0.527000000
O    -2.794000000    -8.168000000    -3.270000000
H    -2.000000000    -8.243000000    -2.741000000
H    -3.408000000    -8.784000000    -2.869000000
O     5.942000000    -5.764000000     3.030000000
H     5.022000000    -5.627000000     2.804000000
H     5.944000000    -6.573000000     3.543000000
O    -0.230000000    -4.979000000    -6.366000000
H    -0.600000000    -5.822000000    -6.104000000
H     0.491000000    -4.832000000    -5.754000000
O     2.541000000    -6.557000000    -7.143000000
H     2.633000000    -5.981000000    -6.384000000
H     3.420000000    -6.905000000    -7.288000000
O     6.538000000    -6.911000000    -3.965000000
H     5.860000000    -7.308000000    -4.511000000
H     7.224000000    -6.656000000    -4.582000000
O    -0.003000000    -7.527000000    -1.797000000
H     0.741000000    -8.078000000    -2.040000000
H     0.297000000    -6.633000000    -1.963000000
O     6.875000000    -4.066000000     0.853000000
H     6.389000000    -4.494000000     1.558000000
H     6.605000000    -4.529000000     0.060000000
O     3.161000000    -5.747000000     2.447000000
H     3.027000000    -5.225000000     1.656000000
H     2.278000000    -5.989000000     2.726000000
O     6.312000000    -4.238000000    -2.502000000
H     6.419000000    -4.995000000    -3.077000000
H     7.204000000    -3.999000000    -2.251000000
O     3.647000000    -7.505000000    -2.895000000
H     3.736000000    -6.578000000    -3.118000000
H     4.398000000    -7.688000000    -2.330000000
O     1.788000000    -9.444000000    -3.122000000
H     2.393000000    -8.702000000    -3.150000000
H     2.174000000   -10.042000000    -2.482000000
O     4.252000000    -8.076000000     0.932000000
H     3.911000000    -7.600000000     1.689000000
H     4.548000000    -7.392000000     0.332000000
O    -1.202000000    -7.763000000    -5.518000000
H    -1.836000000    -7.620000000    -4.815000000
H    -0.842000000    -8.633000000    -5.343000000
O    -1.204000000    -9.812000000    -0.943000000
H    -0.783000000    -8.983000000    -1.171000000
H    -0.581000000   -10.246000000    -0.361000000
O     1.088000000    -7.193000000     1.093000000
H     1.701000000    -6.582000000     0.684000000
H     0.405000000    -7.324000000     0.435000000
O     0.933000000    -8.055000000     3.720000000
H     1.799000000    -8.407000000     3.929000000
H     0.938000000    -7.958000000     2.768000000
