215
-1461.36335
C     4.621000000     1.488000000     2.359000000
H     4.203000000     1.582000000     3.358000000
C     3.980000000     2.106000000     1.225000000
C     4.504000000     1.792000000    -0.043000000
H     3.979000000     2.189000000    -0.909000000
C     2.738000000     3.032000000     1.453000000
O     2.664000000     3.466000000     2.873000000
H     1.906000000     2.344000000     1.240000000
O     2.646000000     4.149000000     0.538000000
C     1.507000000     4.371000000    -0.162000000
C     1.530000000     3.977000000    -1.480000000
H     2.376000000     3.494000000    -1.962000000
C     0.322000000     4.087000000    -2.150000000
O     0.322000000     3.523000000    -3.377000000
C    -0.873000000     4.532000000    -1.519000000
C    -2.171000000     4.614000000    -2.271000000
H    -2.847000000     5.441000000    -2.046000000
C    -2.922000000     3.294000000    -2.303000000
C    -3.861000000     3.127000000    -1.289000000
H    -4.077000000     3.998000000    -0.675000000
H    -1.975000000     4.836000000    -3.323000000
C    -0.870000000     4.909000000    -0.167000000
H    -1.764000000     5.342000000     0.274000000
C     0.365000000     4.807000000     0.490000000
C     0.394000000     5.194000000     1.988000000
H    -0.398000000     5.941000000     2.082000000
H     1.351000000     5.651000000     2.245000000
C     0.258000000     4.057000000     2.944000000
C    -1.045000000     3.696000000     3.315000000
H    -1.813000000     4.418000000     3.049000000
C     1.354000000     3.214000000     3.317000000
C     1.094000000     2.063000000     4.057000000
H     1.920000000     1.406000000     4.316000000
C    -0.215000000     1.704000000     4.386000000
O    -0.464000000     0.419000000     4.790000000
C    -0.804000000    -0.679000000     3.914000000
C    -0.139000000    -1.960000000     4.315000000
C    -0.678000000    -3.221000000     3.983000000
H    -1.607000000    -3.176000000     3.420000000
C     1.220000000    -1.864000000     4.776000000
H     1.657000000    -0.886000000     4.958000000
O    -2.233000000    -0.853000000     4.075000000
H    -0.448000000    -0.386000000     2.916000000
C    -1.270000000     2.533000000     4.110000000
C    -2.709000000     2.068000000     4.449000000
H    -3.300000000     2.976000000     4.586000000
H    -2.830000000     1.596000000     5.426000000
C    -3.328000000     1.210000000     3.351000000
C    -4.009000000     1.768000000     2.299000000
H    -4.086000000     2.851000000     2.259000000
C    -3.089000000    -0.175000000     3.324000000
C    -3.703000000    -1.001000000     2.402000000
H    -3.384000000    -2.039000000     2.368000000
C    -4.513000000    -0.431000000     1.371000000
O    -4.711000000    -1.370000000     0.401000000
C    -4.051000000    -1.217000000    -0.827000000
C    -3.661000000    -2.594000000    -1.393000000
C    -3.306000000    -3.691000000    -0.561000000
H    -3.132000000    -3.486000000     0.492000000
C    -3.703000000    -2.773000000    -2.798000000
H    -3.818000000    -1.909000000    -3.448000000
O    -4.779000000    -0.361000000    -1.700000000
H    -3.072000000    -0.752000000    -0.640000000
C    -4.560000000     1.017000000     1.262000000
C    -5.339000000     1.648000000     0.104000000
H    -5.767000000     2.606000000     0.407000000
H    -6.261000000     1.107000000    -0.116000000
C    -4.433000000     1.922000000    -1.024000000
C    -4.200000000     0.903000000    -1.907000000
C    -3.281000000     1.006000000    -2.972000000
H    -3.110000000     0.140000000    -3.606000000
C    -2.539000000     2.164000000    -3.051000000
O    -1.533000000     2.259000000    -4.024000000
C    -0.208000000     2.230000000    -3.514000000
H    -0.114000000     1.727000000    -2.540000000
C     0.658000000     1.353000000    -4.474000000
C     1.969000000     1.730000000    -4.785000000
H     2.351000000     2.719000000    -4.543000000
C     0.110000000     0.157000000    -5.056000000
H    -0.904000000    -0.093000000    -4.751000000
C     0.908000000    -0.679000000    -5.821000000
O     0.522000000    -1.922000000    -6.299000000
C     2.260000000    -0.302000000    -6.057000000
H     2.829000000    -0.946000000    -6.722000000
C     2.771000000     0.858000000    -5.507000000
O     4.074000000     1.201000000    -5.754000000
C     4.904000000     1.678000000    -4.776000000
C     5.063000000     0.910000000    -3.639000000
H     4.630000000    -0.079000000    -3.521000000
C     5.617000000     2.827000000    -4.997000000
H     5.400000000     3.449000000    -5.862000000
C     6.437000000     3.316000000    -3.936000000
H     6.851000000     4.315000000    -4.043000000
C     6.580000000     2.576000000    -2.774000000
H     7.138000000     2.900000000    -1.899000000
C     5.881000000     1.414000000    -2.640000000
O     6.027000000     0.609000000    -1.502000000
C     5.613000000     1.013000000    -0.255000000
C     6.179000000     0.319000000     0.875000000
H     6.984000000    -0.390000000     0.699000000
C     5.721000000     0.628000000     2.157000000
O     6.219000000    -0.012000000     3.255000000
C     5.558000000    -0.393000000     4.383000000
C     4.873000000    -1.604000000     4.373000000
H     4.925000000    -2.235000000     3.489000000
C     5.382000000     0.480000000     5.436000000
H     5.885000000     1.442000000     5.379000000
C     4.598000000     0.149000000     6.519000000
H     4.501000000     0.845000000     7.349000000
C     3.910000000    -1.026000000     6.544000000
H     3.224000000    -1.123000000     7.383000000
C     3.995000000    -1.891000000     5.458000000
O     3.231000000    -3.007000000     5.390000000
C     1.971000000    -3.018000000     4.930000000
C     1.338000000    -4.253000000     4.771000000
H     1.859000000    -5.188000000     4.960000000
C     0.057000000    -4.424000000     4.156000000
O    -0.342000000    -5.665000000     3.629000000
C    -1.660000000    -5.884000000     3.054000000
C    -1.932000000    -5.506000000     1.739000000
H    -1.137000000    -5.085000000     1.130000000
C    -2.593000000    -6.620000000     3.768000000
H    -2.349000000    -7.014000000     4.751000000
C    -3.771000000    -6.983000000     3.195000000
H    -4.395000000    -7.629000000     3.807000000
C    -3.999000000    -6.785000000     1.872000000
H    -4.960000000    -7.095000000     1.469000000
C    -3.030000000    -6.112000000     1.132000000
O    -3.088000000    -6.053000000    -0.208000000
C    -3.152000000    -4.947000000    -1.057000000
C    -3.122000000    -5.163000000    -2.437000000
H    -2.864000000    -6.105000000    -2.915000000
C    -3.420000000    -4.106000000    -3.283000000
O    -3.423000000    -4.339000000    -4.654000000
C    -2.780000000    -3.477000000    -5.447000000
C    -3.447000000    -3.119000000    -6.585000000
H    -4.464000000    -3.474000000    -6.733000000
C    -2.864000000    -2.289000000    -7.575000000
H    -3.473000000    -2.023000000    -8.435000000
C    -1.506000000    -1.923000000    -7.447000000
H    -1.143000000    -1.257000000    -8.226000000
C    -0.798000000    -2.365000000    -6.280000000
C    -1.435000000    -3.112000000    -5.287000000
H    -0.868000000    -3.353000000    -4.392000000
C     1.195000000    -2.923000000     0.682000000
H     1.909000000    -3.350000000     1.383000000
C     0.810000000    -1.574000000     0.776000000
H     1.090000000    -0.985000000     1.646000000
C    -0.009000000    -0.939000000    -0.122000000
H    -0.157000000     0.166000000    -0.162000000
C    -0.511000000    -1.687000000    -1.191000000
H    -1.136000000    -1.237000000    -1.958000000
C    -0.173000000    -3.076000000    -1.336000000
H    -0.623000000    -3.668000000    -2.129000000
C     0.760000000    -3.616000000    -0.446000000
C     1.121000000    -5.036000000    -0.723000000
O     0.976000000    -5.598000000    -1.817000000
O     1.897000000    -5.545000000     0.098000000
O     2.940000000    -2.371000000    -3.089000000
H     2.231000000    -2.360000000    -2.446000000
H     2.804000000    -3.182000000    -3.580000000
O     4.551000000    -5.868000000    -1.572000000
H     4.664000000    -4.935000000    -1.386000000
H     3.758000000    -6.112000000    -1.096000000
O     5.842000000    -5.267000000     3.555000000
H     5.478000000    -4.706000000     4.239000000
H     5.215000000    -5.205000000     2.835000000
O     0.624000000    -9.287000000    -5.323000000
H     1.232000000    -9.216000000    -6.059000000
H     1.122000000    -8.969000000    -4.569000000
O     6.570000000    -7.210000000    -3.134000000
H     7.155000000    -6.500000000    -3.399000000
H     5.937000000    -6.793000000    -2.550000000
O     0.635000000    -7.964000000     4.900000000
H     1.512000000    -8.292000000     4.702000000
H     0.360000000    -7.518000000     4.099000000
O     5.032000000    -3.041000000    -0.813000000
H     4.624000000    -2.353000000    -1.338000000
H     5.902000000    -2.699000000    -0.604000000
O     1.731000000    -7.585000000    -3.405000000
H     2.186000000    -8.140000000    -2.772000000
H     1.317000000    -6.905000000    -2.874000000
O    -2.275000000    -8.967000000    -3.212000000
H    -3.124000000    -8.549000000    -3.355000000
H    -2.485000000    -9.887000000    -3.052000000
O     6.727000000    -6.672000000     1.063000000
H     5.788000000    -6.491000000     1.078000000
H     7.026000000    -6.461000000     1.948000000
O     4.059000000    -5.022000000     1.240000000
H     4.469000000    -4.631000000     0.468000000
H     3.204000000    -5.323000000     0.930000000
O     2.404000000    -4.845000000    -4.304000000
H     2.740000000    -5.708000000    -4.545000000
H     1.835000000    -5.011000000    -3.552000000
O     3.362000000    -8.812000000    -1.672000000
H     3.302000000    -9.767000000    -1.699000000
H     4.280000000    -8.624000000    -1.863000000
O     0.922000000   -10.124000000     1.707000000
H     0.042000000    -9.757000000     1.626000000
H     1.481000000    -9.514000000     1.225000000
O    -1.475000000    -9.013000000     1.500000000
H    -1.852000000    -8.395000000     2.126000000
H    -1.418000000    -8.520000000     0.681000000
O    -1.125000000    -6.776000000    -5.343000000
H    -0.465000000    -7.468000000    -5.339000000
H    -1.570000000    -6.864000000    -4.501000000
O    -0.535000000    -8.245000000    -1.030000000
H    -0.029000000    -7.450000000    -1.195000000
H    -0.715000000    -8.600000000    -1.901000000
O     2.885000000    -7.967000000     0.896000000
H     2.687000000    -7.046000000     0.730000000
H     3.266000000    -8.282000000     0.076000000
O     3.103000000    -8.150000000     3.889000000
H     3.441000000    -9.013000000     4.130000000
H     3.130000000    -8.140000000     2.933000000
