215
-1458.92097
C     4.491000000     0.998000000     2.161000000
H     4.157000000     0.888000000     3.189000000
C     3.985000000     1.967000000     1.226000000
C     4.591000000     2.129000000     0.008000000
H     4.138000000     2.894000000    -0.617000000
C     2.815000000     2.850000000     1.614000000
O     2.569000000     2.879000000     2.982000000
H     2.033000000     2.327000000     1.044000000
O     2.877000000     4.193000000     1.049000000
C     1.737000000     4.518000000     0.351000000
C     1.712000000     4.361000000    -1.072000000
H     2.610000000     4.161000000    -1.651000000
C     0.514000000     4.456000000    -1.706000000
O     0.369000000     3.803000000    -2.967000000
C    -0.685000000     4.741000000    -0.966000000
C    -1.969000000     4.833000000    -1.646000000
H    -2.723000000     5.445000000    -1.146000000
C    -2.706000000     3.476000000    -1.739000000
C    -3.592000000     3.154000000    -0.655000000
H    -3.776000000     3.814000000     0.189000000
H    -1.700000000     5.316000000    -2.588000000
C    -0.656000000     4.965000000     0.433000000
H    -1.569000000     5.209000000     0.971000000
C     0.541000000     4.806000000     1.118000000
C     0.494000000     4.967000000     2.585000000
H    -0.292000000     5.684000000     2.830000000
H     1.342000000     5.583000000     2.895000000
C     0.247000000     3.620000000     3.256000000
C    -0.993000000     3.322000000     3.750000000
H    -1.806000000     4.042000000     3.697000000
C     1.271000000     2.692000000     3.456000000
C     1.099000000     1.531000000     4.083000000
H     1.897000000     0.797000000     4.003000000
C    -0.219000000     1.236000000     4.554000000
O    -0.399000000    -0.046000000     5.004000000
C    -0.873000000    -0.953000000     4.032000000
C    -0.224000000    -2.288000000     3.992000000
C    -0.831000000    -3.342000000     3.367000000
H    -1.749000000    -3.274000000     2.789000000
C     1.049000000    -2.339000000     4.483000000
H     1.572000000    -1.486000000     4.907000000
O    -2.316000000    -1.090000000     4.251000000
H    -0.598000000    -0.401000000     3.121000000
C    -1.287000000     2.094000000     4.366000000
C    -2.734000000     1.747000000     4.714000000
H    -3.359000000     2.593000000     5.005000000
H    -2.724000000     1.117000000     5.605000000
C    -3.352000000     0.967000000     3.521000000
C    -4.035000000     1.670000000     2.547000000
H    -3.965000000     2.755000000     2.557000000
C    -3.175000000    -0.437000000     3.386000000
C    -3.806000000    -1.161000000     2.401000000
H    -3.649000000    -2.237000000     2.385000000
C    -4.554000000    -0.477000000     1.492000000
O    -4.943000000    -1.178000000     0.360000000
C    -4.053000000    -1.144000000    -0.810000000
C    -3.989000000    -2.478000000    -1.499000000
C    -4.029000000    -3.620000000    -0.778000000
H    -4.115000000    -3.520000000     0.301000000
C    -3.657000000    -2.526000000    -2.855000000
H    -3.587000000    -1.694000000    -3.551000000
O    -4.641000000    -0.236000000    -1.665000000
H    -3.059000000    -0.774000000    -0.518000000
C    -4.594000000     0.922000000     1.455000000
C    -5.304000000     1.623000000     0.353000000
H    -5.648000000     2.554000000     0.807000000
H    -6.165000000     1.043000000     0.012000000
C    -4.334000000     1.999000000    -0.690000000
C    -4.167000000     1.071000000    -1.745000000
C    -3.269000000     1.351000000    -2.756000000
H    -3.037000000     0.638000000    -3.544000000
C    -2.565000000     2.533000000    -2.748000000
O    -1.587000000     2.585000000    -3.676000000
C    -0.234000000     2.508000000    -3.170000000
H    -0.287000000     2.079000000    -2.158000000
C     0.671000000     1.729000000    -4.136000000
C     1.933000000     2.237000000    -4.475000000
H     2.368000000     3.140000000    -4.055000000
C     0.239000000     0.493000000    -4.612000000
H    -0.691000000     0.093000000    -4.216000000
C     1.018000000    -0.201000000    -5.483000000
O     0.722000000    -1.462000000    -5.899000000
C     2.179000000     0.365000000    -5.996000000
H     2.738000000    -0.228000000    -6.715000000
C     2.690000000     1.513000000    -5.403000000
O     4.025000000     1.789000000    -5.739000000
C     4.852000000     2.328000000    -4.790000000
C     5.098000000     1.624000000    -3.591000000
H     4.732000000     0.632000000    -3.341000000
C     5.246000000     3.657000000    -4.956000000
H     4.920000000     4.205000000    -5.836000000
C     6.128000000     4.212000000    -4.019000000
H     6.377000000     5.268000000    -4.083000000
C     6.491000000     3.459000000    -2.903000000
H     7.140000000     3.880000000    -2.139000000
C     5.899000000     2.204000000    -2.628000000
O     6.306000000     1.375000000    -1.605000000
C     5.678000000     1.309000000    -0.350000000
C     6.149000000     0.342000000     0.519000000
H     6.995000000    -0.267000000     0.213000000
C     5.513000000     0.111000000     1.839000000
O     6.149000000    -0.681000000     2.798000000
C     5.588000000    -1.248000000     3.922000000
C     4.505000000    -2.233000000     3.762000000
H     4.171000000    -2.492000000     2.761000000
C     6.118000000    -1.023000000     5.170000000
H     6.907000000    -0.285000000     5.292000000
C     5.522000000    -1.472000000     6.295000000
H     5.857000000    -1.104000000     7.262000000
C     4.553000000    -2.474000000     6.192000000
H     4.010000000    -2.909000000     7.027000000
C     4.028000000    -2.734000000     4.918000000
O     3.014000000    -3.743000000     4.891000000
C     1.712000000    -3.534000000     4.404000000
C     1.154000000    -4.690000000     3.899000000
H     1.706000000    -5.606000000     3.706000000
C    -0.137000000    -4.575000000     3.340000000
O    -0.620000000    -5.647000000     2.582000000
C    -1.929000000    -5.882000000     2.296000000
C    -2.347000000    -5.823000000     0.958000000
H    -1.559000000    -5.608000000     0.241000000
C    -2.730000000    -6.383000000     3.267000000
H    -2.307000000    -6.508000000     4.260000000
C    -4.083000000    -6.738000000     2.926000000
H    -4.705000000    -7.187000000     3.696000000
C    -4.487000000    -6.631000000     1.596000000
H    -5.556000000    -6.749000000     1.437000000
C    -3.616000000    -6.196000000     0.611000000
O    -4.021000000    -6.017000000    -0.685000000
C    -3.955000000    -4.838000000    -1.378000000
C    -3.615000000    -4.899000000    -2.755000000
H    -3.552000000    -5.802000000    -3.357000000
C    -3.452000000    -3.719000000    -3.511000000
O    -3.410000000    -3.719000000    -4.891000000
C    -2.556000000    -3.054000000    -5.747000000
C    -3.141000000    -2.720000000    -6.968000000
H    -4.156000000    -3.071000000    -7.132000000
C    -2.306000000    -2.073000000    -7.862000000
H    -2.719000000    -1.804000000    -8.830000000
C    -1.062000000    -1.710000000    -7.509000000
H    -0.405000000    -1.211000000    -8.218000000
C    -0.526000000    -1.920000000    -6.188000000
C    -1.243000000    -2.737000000    -5.372000000
H    -0.816000000    -3.128000000    -4.452000000
C     1.586000000    -2.431000000     0.515000000
H     2.374000000    -2.934000000     1.069000000
C     1.186000000    -1.167000000     0.836000000
H     1.766000000    -0.566000000     1.531000000
C     0.162000000    -0.599000000     0.095000000
H    -0.196000000     0.397000000     0.345000000
C    -0.443000000    -1.340000000    -0.937000000
H    -1.216000000    -0.905000000    -1.566000000
C    -0.018000000    -2.667000000    -1.192000000
H    -0.468000000    -3.173000000    -2.042000000
C     0.943000000    -3.220000000    -0.427000000
C     1.344000000    -4.694000000    -0.641000000
O     0.885000000    -5.403000000    -1.517000000
O     2.304000000    -5.127000000     0.002000000
O     2.437000000    -7.774000000     0.135000000
H     2.364000000    -6.825000000     0.038000000
H     1.827000000    -7.991000000     0.840000000
O     3.959000000    -4.838000000     1.885000000
H     3.374000000    -4.954000000     1.136000000
H     3.405000000    -5.002000000     2.649000000
O     3.076000000    -6.764000000    -3.074000000
H     2.426000000    -6.403000000    -2.472000000
H     3.899000000    -6.730000000    -2.587000000
O     5.720000000    -5.934000000    -2.247000000
H     6.350000000    -6.139000000    -2.938000000
H     6.261000000    -5.721000000    -1.486000000
O     6.482000000    -2.035000000    -1.422000000
H     6.001000000    -2.619000000    -2.009000000
H     6.609000000    -2.549000000    -0.625000000
O     3.871000000    -3.683000000    -1.769000000
H     3.936000000    -4.229000000    -2.553000000
H     3.763000000    -4.307000000    -1.051000000
O     6.194000000    -3.443000000    -3.844000000
H     7.108000000    -3.470000000    -4.126000000
H     6.082000000    -4.235000000    -3.319000000
O     2.534000000    -1.517000000    -2.793000000
H     2.966000000    -2.161000000    -2.232000000
H     1.747000000    -1.267000000    -2.308000000
O     3.129000000    -5.299000000    -5.377000000
H     2.876000000    -5.885000000    -4.663000000
H     3.479000000    -4.524000000    -4.937000000
O     6.388000000    -3.829000000     0.825000000
H     6.786000000    -4.693000000     0.712000000
H     5.502000000    -4.012000000     1.135000000
O    -0.475000000    -5.751000000    -4.032000000
H    -0.061000000    -5.564000000    -3.189000000
H    -1.073000000    -6.475000000    -3.849000000
O     4.098000000    -2.301000000    -4.880000000
H     3.698000000    -1.764000000    -4.196000000
H     4.950000000    -2.551000000    -4.521000000
O    -1.893000000    -8.124000000    -3.446000000
H    -1.179000000    -8.356000000    -2.853000000
H    -2.627000000    -8.669000000    -3.163000000
O     0.586000000    -8.101000000     2.074000000
H    -0.080000000    -8.639000000     1.646000000
H     0.092000000    -7.396000000     2.493000000
O     5.309000000    -9.359000000     0.333000000
H     4.363000000    -9.214000000     0.307000000
H     5.570000000    -9.401000000    -0.586000000
O     0.093000000    -7.922000000    -1.775000000
H     0.259000000    -6.986000000    -1.660000000
H     0.504000000    -8.334000000    -1.015000000
O     3.079000000   -10.169000000    -1.033000000
H     2.715000000    -9.320000000    -1.284000000
H     2.444000000   -10.527000000    -0.412000000
O     1.341000000    -7.904000000    -5.080000000
H     0.614000000    -7.301000000    -4.926000000
H     2.012000000    -7.636000000    -4.451000000
O     0.406000000    -5.016000000    -6.450000000
H     0.027000000    -5.099000000    -5.574000000
H     1.348000000    -4.945000000    -6.297000000
