215
-1475.50137
C    -4.989000000    -1.136000000    -1.712000000
H    -5.046000000    -0.116000000    -2.083000000
C    -4.668000000    -1.461000000    -0.352000000
C    -4.429000000    -2.750000000     0.040000000
H    -4.078000000    -2.859000000     1.063000000
C    -4.335000000    -0.328000000     0.661000000
O    -4.948000000     0.952000000     0.311000000
H    -3.269000000    -0.072000000     0.747000000
O    -4.827000000    -0.749000000     1.912000000
C    -3.856000000    -0.449000000     2.898000000
C    -2.958000000    -1.449000000     3.329000000
H    -3.014000000    -2.479000000     2.988000000
C    -1.875000000    -1.149000000     4.131000000
O    -0.966000000    -2.133000000     4.466000000
C    -1.687000000     0.228000000     4.609000000
C    -0.522000000     0.685000000     5.505000000
H    -0.798000000     1.542000000     6.122000000
C     0.740000000     0.895000000     4.707000000
C     1.101000000     2.198000000     4.410000000
H     0.365000000     2.996000000     4.456000000
H    -0.392000000    -0.066000000     6.287000000
C    -2.537000000     1.210000000     4.152000000
H    -2.401000000     2.241000000     4.469000000
C    -3.599000000     0.884000000     3.287000000
C    -4.368000000     2.005000000     2.823000000
H    -4.424000000     2.851000000     3.511000000
H    -5.403000000     1.739000000     2.601000000
C    -3.832000000     2.672000000     1.579000000
C    -2.966000000     3.743000000     1.636000000
H    -2.560000000     4.044000000     2.598000000
C    -4.252000000     2.140000000     0.346000000
C    -3.694000000     2.596000000    -0.825000000
H    -3.736000000     1.998000000    -1.731000000
C    -2.802000000     3.704000000    -0.751000000
O    -2.210000000     4.104000000    -1.937000000
C    -0.818000000     3.618000000    -2.187000000
C    -0.640000000     3.169000000    -3.624000000
C     0.682000000     3.339000000    -4.224000000
H     1.548000000     3.863000000    -3.827000000
C    -1.566000000     2.343000000    -4.197000000
H    -2.589000000     2.258000000    -3.839000000
O     0.057000000     4.684000000    -1.800000000
H    -0.661000000     2.786000000    -1.485000000
C    -2.490000000     4.312000000     0.497000000
C    -1.467000000     5.482000000     0.574000000
H    -1.779000000     6.143000000     1.386000000
H    -1.533000000     6.106000000    -0.320000000
C    -0.056000000     5.016000000     0.636000000
C     0.586000000     4.702000000     1.823000000
H    -0.070000000     4.882000000     2.671000000
C     0.640000000     4.704000000    -0.562000000
C     1.887000000     4.094000000    -0.486000000
H     2.382000000     3.900000000    -1.434000000
C     2.550000000     3.894000000     0.700000000
O     3.751000000     3.225000000     0.685000000
C     3.791000000     1.798000000     0.982000000
C     4.750000000     1.038000000     0.032000000
C     4.721000000     1.281000000    -1.356000000
H     4.148000000     2.137000000    -1.705000000
C     5.522000000    -0.015000000     0.466000000
H     5.692000000    -0.130000000     1.533000000
O     4.089000000     1.543000000     2.391000000
H     2.771000000     1.451000000     0.762000000
C     1.903000000     4.205000000     1.922000000
C     2.630000000     3.903000000     3.224000000
H     2.398000000     4.609000000     4.024000000
H     3.716000000     3.998000000     3.165000000
C     2.243000000     2.468000000     3.644000000
C     3.041000000     1.382000000     3.265000000
C     2.688000000     0.071000000     3.552000000
H     3.342000000    -0.772000000     3.343000000
C     1.542000000    -0.191000000     4.339000000
O     1.210000000    -1.533000000     4.520000000
C     0.243000000    -2.105000000     3.685000000
H     0.127000000    -1.442000000     2.815000000
C     0.731000000    -3.456000000     3.203000000
C    -0.180000000    -4.452000000     2.902000000
H    -1.199000000    -4.335000000     3.261000000
C     2.024000000    -3.609000000     2.740000000
H     2.746000000    -2.796000000     2.732000000
C     2.414000000    -4.778000000     2.086000000
O     3.629000000    -4.929000000     1.500000000
C     1.459000000    -5.801000000     1.804000000
H     1.778000000    -6.752000000     1.384000000
C     0.164000000    -5.613000000     2.247000000
O    -0.728000000    -6.588000000     1.926000000
C    -2.073000000    -6.257000000     1.940000000
C    -2.604000000    -5.778000000     0.772000000
H    -2.016000000    -5.663000000    -0.135000000
C    -2.904000000    -6.472000000     3.034000000
H    -2.555000000    -6.913000000     3.964000000
C    -4.257000000    -6.246000000     2.916000000
H    -4.955000000    -6.453000000     3.724000000
C    -4.734000000    -5.645000000     1.746000000
H    -5.807000000    -5.474000000     1.718000000
C    -3.921000000    -5.409000000     0.648000000
O    -4.484000000    -5.064000000    -0.511000000
C    -4.676000000    -3.780000000    -0.860000000
C    -4.978000000    -3.459000000    -2.212000000
H    -5.231000000    -4.230000000    -2.936000000
C    -5.089000000    -2.127000000    -2.645000000
O    -5.352000000    -1.906000000    -3.986000000
C    -5.077000000    -0.699000000    -4.652000000
C    -3.812000000    -0.308000000    -4.821000000
H    -3.036000000    -0.865000000    -4.303000000
C    -6.102000000    -0.195000000    -5.465000000
H    -7.099000000    -0.600000000    -5.312000000
C    -5.788000000     0.688000000    -6.564000000
H    -6.591000000     1.003000000    -7.226000000
C    -4.432000000     1.119000000    -6.663000000
H    -4.148000000     1.614000000    -7.587000000
C    -3.447000000     0.632000000    -5.782000000
O    -2.129000000     0.884000000    -6.047000000
C    -1.278000000     1.702000000    -5.389000000
C    -0.039000000     1.851000000    -6.027000000
H     0.178000000     1.383000000    -6.984000000
C     0.925000000     2.683000000    -5.446000000
O     2.064000000     2.843000000    -6.191000000
C     3.322000000     2.823000000    -5.649000000
C     3.627000000     1.720000000    -4.854000000
H     2.814000000     1.053000000    -4.582000000
C     4.291000000     3.672000000    -5.984000000
H     4.009000000     4.596000000    -6.482000000
C     5.619000000     3.460000000    -5.536000000
H     6.504000000     4.003000000    -5.858000000
C     5.900000000     2.377000000    -4.715000000
H     6.916000000     2.228000000    -4.359000000
C     4.872000000     1.508000000    -4.412000000
O     4.952000000     0.432000000    -3.616000000
C     5.286000000     0.358000000    -2.288000000
C     5.967000000    -0.807000000    -1.799000000
H     6.419000000    -1.461000000    -2.540000000
C     6.093000000    -0.955000000    -0.366000000
O     6.941000000    -1.967000000     0.095000000
C     6.500000000    -2.820000000     1.082000000
C     7.261000000    -3.066000000     2.231000000
H     8.267000000    -2.695000000     2.407000000
C     6.726000000    -3.911000000     3.230000000
H     7.364000000    -4.137000000     4.081000000
C     5.437000000    -4.452000000     3.053000000
H     4.969000000    -5.097000000     3.793000000
C     4.818000000    -4.241000000     1.842000000
C     5.302000000    -3.461000000     0.865000000
H     4.732000000    -3.327000000    -0.051000000
C    -0.549000000    -3.032000000    -0.793000000
H    -1.337000000    -3.718000000    -1.091000000
C    -0.859000000    -1.881000000    -0.029000000
H    -1.874000000    -1.677000000     0.303000000
C     0.047000000    -0.929000000     0.236000000
H    -0.178000000    -0.137000000     0.899000000
C     1.407000000    -1.129000000    -0.104000000
H     2.185000000    -0.431000000     0.195000000
C     1.683000000    -2.346000000    -0.716000000
H     2.728000000    -2.630000000    -0.803000000
C     0.767000000    -3.354000000    -0.985000000
C     1.228000000    -4.599000000    -1.709000000
O     2.354000000    -4.716000000    -2.118000000
O     0.371000000    -5.409000000    -2.155000000
O     5.916000000    -6.439000000    -4.719000000
H     5.173000000    -7.007000000    -4.517000000
H     5.745000000    -5.636000000    -4.226000000
O     4.077000000    -6.634000000    -1.067000000
H     3.890000000    -6.745000000    -0.135000000
H     3.455000000    -5.967000000    -1.359000000
O     1.246000000    -7.644000000    -3.400000000
H     0.522000000    -7.705000000    -4.023000000
H     1.141000000    -6.784000000    -2.993000000
O    -0.417000000    -2.678000000    -4.549000000
H     0.435000000    -3.112000000    -4.544000000
H    -0.687000000    -2.689000000    -5.468000000
O     4.745000000    -4.328000000    -3.414000000
H     4.641000000    -3.712000000    -4.138000000
H     3.859000000    -4.447000000    -3.071000000
O    -1.305000000    -7.415000000    -4.826000000
H    -1.778000000    -6.607000000    -4.628000000
H    -1.490000000    -7.581000000    -5.750000000
O     0.074000000    -7.721000000    -0.883000000
H    -0.011000000    -6.846000000    -1.260000000
H     0.453000000    -8.249000000    -1.586000000
O     1.508000000    -7.123000000    -6.473000000
H     1.709000000    -7.489000000    -7.335000000
H     2.112000000    -7.565000000    -5.878000000
O     4.185000000    -9.172000000    -1.767000000
H     4.106000000    -8.232000000    -1.605000000
H     4.608000000    -9.233000000    -2.624000000
O     3.783000000    -8.128000000    -4.578000000
H     3.047000000    -8.050000000    -3.970000000
H     3.647000000    -8.972000000    -5.009000000
O     0.858000000    -0.349000000    -3.452000000
H     0.963000000    -0.384000000    -2.501000000
H     0.131000000    -0.944000000    -3.635000000
O    -2.098000000    -4.951000000    -3.835000000
H    -1.921000000    -4.363000000    -4.569000000
H    -1.320000000    -4.884000000    -3.281000000
O    -1.346000000    -9.238000000     0.911000000
H    -0.818000000    -8.829000000     1.596000000
H    -1.095000000    -8.778000000     0.109000000
O     4.664000000    -2.711000000    -5.579000000
H     5.272000000    -2.100000000    -5.994000000
H     3.854000000    -2.211000000    -5.478000000
O     6.858000000    -6.646000000    -1.924000000
H     6.980000000    -6.856000000    -2.850000000
H     5.911000000    -6.548000000    -1.823000000
O    -1.675000000    -9.220000000    -3.094000000
H    -1.605000000    -8.412000000    -3.603000000
H    -2.535000000    -9.573000000    -3.323000000
O     1.727000000    -4.327000000    -4.851000000
H     1.633000000    -4.398000000    -3.901000000
H     1.451000000    -5.182000000    -5.184000000
O     1.919000000    -9.031000000     0.395000000
H     2.449000000    -9.582000000    -0.181000000
H     1.238000000    -8.674000000    -0.175000000
O     2.331000000    -1.644000000    -5.305000000
H     1.905000000    -1.044000000    -4.693000000
H     1.853000000    -2.468000000    -5.204000000
