215
-1458.39049
C     4.100000000     1.237000000     2.039000000
H     3.417000000     0.963000000     2.839000000
C     3.931000000     2.340000000     1.176000000
C     4.665000000     2.392000000     0.026000000
H     4.317000000     3.093000000    -0.727000000
C     2.757000000     3.322000000     1.407000000
O     2.447000000     3.606000000     2.800000000
H     1.848000000     2.748000000     1.173000000
O     2.731000000     4.583000000     0.630000000
C     1.616000000     4.612000000    -0.166000000
C     1.705000000     4.197000000    -1.479000000
H     2.611000000     3.824000000    -1.950000000
C     0.574000000     4.169000000    -2.288000000
O     0.551000000     3.640000000    -3.559000000
C    -0.656000000     4.553000000    -1.734000000
C    -1.962000000     4.513000000    -2.517000000
H    -2.614000000     5.291000000    -2.115000000
C    -2.652000000     3.177000000    -2.385000000
C    -3.647000000     3.068000000    -1.434000000
H    -3.875000000     3.942000000    -0.829000000
H    -1.878000000     4.837000000    -3.557000000
C    -0.695000000     4.880000000    -0.379000000
H    -1.620000000     5.269000000     0.038000000
C     0.406000000     5.025000000     0.413000000
C     0.265000000     5.369000000     1.873000000
H    -0.532000000     6.115000000     1.909000000
H     1.129000000     5.903000000     2.275000000
C     0.021000000     4.168000000     2.806000000
C    -1.306000000     3.730000000     3.146000000
H    -2.120000000     4.395000000     2.872000000
C     1.170000000     3.409000000     3.245000000
C     0.920000000     2.193000000     3.937000000
H     1.736000000     1.523000000     4.197000000
C    -0.385000000     1.770000000     4.220000000
O    -0.552000000     0.520000000     4.812000000
C    -1.141000000    -0.607000000     4.045000000
C    -0.548000000    -1.943000000     4.448000000
C    -1.035000000    -3.194000000     4.007000000
H    -1.826000000    -3.228000000     3.262000000
C     0.651000000    -1.938000000     5.239000000
H     1.053000000    -1.044000000     5.708000000
O    -2.577000000    -0.645000000     4.267000000
H    -0.849000000    -0.486000000     2.991000000
C    -1.501000000     2.540000000     3.827000000
C    -2.927000000     2.154000000     4.253000000
H    -3.462000000     3.084000000     4.456000000
H    -2.864000000     1.788000000     5.280000000
C    -3.603000000     1.285000000     3.255000000
C    -4.267000000     1.834000000     2.156000000
H    -4.345000000     2.918000000     2.137000000
C    -3.445000000    -0.094000000     3.294000000
C    -4.098000000    -0.926000000     2.400000000
H    -3.925000000    -1.998000000     2.438000000
C    -4.782000000    -0.368000000     1.295000000
O    -5.173000000    -1.169000000     0.194000000
C    -4.042000000    -1.211000000    -0.703000000
C    -3.703000000    -2.604000000    -1.146000000
C    -3.881000000    -3.671000000    -0.242000000
H    -4.327000000    -3.508000000     0.736000000
C    -3.147000000    -2.898000000    -2.415000000
H    -3.104000000    -2.084000000    -3.134000000
O    -4.364000000    -0.539000000    -1.887000000
H    -3.034000000    -0.948000000    -0.352000000
C    -4.811000000     1.048000000     1.132000000
C    -5.409000000     1.652000000    -0.166000000
H    -5.831000000     2.626000000     0.093000000
H    -6.258000000     1.061000000    -0.514000000
C    -4.374000000     1.864000000    -1.312000000
C    -3.955000000     0.742000000    -2.097000000
C    -2.927000000     0.856000000    -3.075000000
H    -2.663000000     0.040000000    -3.742000000
C    -2.287000000     2.054000000    -3.187000000
O    -1.210000000     2.146000000    -4.060000000
C     0.171000000     2.225000000    -3.624000000
H     0.234000000     1.852000000    -2.591000000
C     1.059000000     1.385000000    -4.589000000
C     2.444000000     1.663000000    -4.766000000
H     2.878000000     2.458000000    -4.166000000
C     0.518000000     0.325000000    -5.295000000
H    -0.553000000     0.159000000    -5.211000000
C     1.316000000    -0.530000000    -6.026000000
O     0.922000000    -1.768000000    -6.485000000
C     2.648000000    -0.223000000    -6.186000000
H     3.236000000    -0.903000000    -6.796000000
C     3.242000000     0.903000000    -5.606000000
O     4.570000000     1.120000000    -5.799000000
C     5.153000000     1.875000000    -4.811000000
C     5.476000000     1.292000000    -3.545000000
H     5.325000000     0.243000000    -3.303000000
C     5.414000000     3.219000000    -4.995000000
H     5.118000000     3.778000000    -5.879000000
C     5.990000000     3.998000000    -4.015000000
H     6.180000000     5.055000000    -4.187000000
C     6.343000000     3.406000000    -2.785000000
H     6.729000000     4.038000000    -1.990000000
C     6.109000000     2.049000000    -2.570000000
O     6.447000000     1.465000000    -1.338000000
C     5.694000000     1.430000000    -0.266000000
C     5.865000000     0.432000000     0.699000000
H     6.626000000    -0.337000000     0.593000000
C     5.029000000     0.216000000     1.791000000
O     5.126000000    -0.892000000     2.512000000
C     4.849000000    -1.068000000     3.863000000
C     3.910000000    -2.024000000     4.214000000
H     3.439000000    -2.658000000     3.468000000
C     5.559000000    -0.432000000     4.828000000
H     6.406000000     0.150000000     4.474000000
C     5.314000000    -0.668000000     6.184000000
H     5.940000000    -0.145000000     6.902000000
C     4.342000000    -1.554000000     6.572000000
H     4.171000000    -1.767000000     7.624000000
C     3.623000000    -2.178000000     5.550000000
O     2.610000000    -3.001000000     5.937000000
C     1.392000000    -3.086000000     5.401000000
C     0.979000000    -4.252000000     4.805000000
H     1.625000000    -5.126000000     4.818000000
C    -0.238000000    -4.298000000     4.163000000
O    -0.546000000    -5.501000000     3.471000000
C    -1.762000000    -5.983000000     3.026000000
C    -2.324000000    -5.589000000     1.823000000
H    -1.902000000    -4.752000000     1.271000000
C    -2.461000000    -6.921000000     3.796000000
H    -2.046000000    -7.125000000     4.779000000
C    -3.544000000    -7.648000000     3.335000000
H    -3.886000000    -8.581000000     3.777000000
C    -4.028000000    -7.254000000     2.071000000
H    -4.971000000    -7.647000000     1.700000000
C    -3.484000000    -6.201000000     1.376000000
O    -4.021000000    -5.986000000     0.147000000
C    -3.653000000    -4.967000000    -0.655000000
C    -3.069000000    -5.248000000    -1.867000000
H    -2.781000000    -6.260000000    -2.138000000
C    -2.796000000    -4.210000000    -2.781000000
O    -2.221000000    -4.443000000    -4.051000000
C    -1.948000000    -3.473000000    -4.991000000
C    -2.959000000    -3.180000000    -5.943000000
H    -3.914000000    -3.688000000    -5.839000000
C    -2.665000000    -2.304000000    -6.980000000
H    -3.461000000    -2.083000000    -7.687000000
C    -1.358000000    -1.844000000    -7.158000000
H    -1.106000000    -1.206000000    -8.001000000
C    -0.339000000    -2.209000000    -6.240000000
C    -0.587000000    -3.040000000    -5.105000000
H     0.140000000    -3.388000000    -4.376000000
C     1.033000000    -1.715000000     1.156000000
H     1.578000000    -2.070000000     2.027000000
C     0.641000000    -0.381000000     1.034000000
H     0.798000000     0.375000000     1.799000000
C    -0.155000000    -0.020000000    -0.035000000
H    -0.630000000     0.892000000    -0.035000000
C    -0.326000000    -0.885000000    -1.081000000
H    -0.989000000    -0.695000000    -1.922000000
C     0.255000000    -2.173000000    -1.085000000
H     0.087000000    -2.885000000    -1.890000000
C     0.817000000    -2.612000000     0.165000000
C     1.274000000    -4.075000000     0.167000000
O     0.911000000    -4.896000000    -0.602000000
O     2.159000000    -4.365000000     0.997000000
O     3.462000000    -5.873000000    -1.784000000
H     3.175000000    -5.121000000    -1.266000000
H     2.666000000    -6.186000000    -2.213000000
O     4.443000000    -4.564000000     2.004000000
H     4.844000000    -4.965000000     1.233000000
H     3.542000000    -4.382000000     1.737000000
O     7.158000000    -4.674000000    -1.038000000
H     7.021000000    -4.017000000    -0.355000000
H     6.840000000    -4.258000000    -1.839000000
O     4.543000000    -9.079000000     1.887000000
H     4.011000000    -8.313000000     2.102000000
H     3.940000000    -9.671000000     1.438000000
O     5.634000000    -7.599000000    -0.732000000
H     5.523000000    -7.837000000     0.188000000
H     4.859000000    -7.076000000    -0.940000000
O     6.717000000    -2.359000000    -2.804000000
H     6.968000000    -2.200000000    -3.713000000
H     5.763000000    -2.284000000    -2.802000000
O    -0.904000000    -8.839000000    -1.507000000
H    -1.840000000    -8.971000000    -1.356000000
H    -0.504000000    -9.677000000    -1.277000000
O     6.771000000    -2.923000000     0.981000000
H     5.920000000    -3.012000000     1.411000000
H     7.381000000    -2.732000000     1.694000000
O     4.026000000    -4.853000000    -5.708000000
H     3.142000000    -5.218000000    -5.754000000
H     4.387000000    -5.203000000    -4.893000000
O     2.582000000    -0.100000000    -1.718000000
H     2.935000000    -0.102000000    -0.828000000
H     1.650000000    -0.285000000    -1.606000000
O     0.751000000    -8.588000000     3.034000000
H     0.089000000    -8.319000000     2.397000000
H     1.361000000    -7.852000000     3.071000000
O     0.998000000    -6.677000000    -2.555000000
H     0.876000000    -6.040000000    -1.851000000
H     0.683000000    -7.503000000    -2.186000000
O     3.969000000    -1.761000000    -3.616000000
H     3.283000000    -2.043000000    -4.222000000
H     3.521000000    -1.182000000    -3.000000000
O     2.714000000    -6.979000000     1.658000000
H     1.888000000    -7.136000000     1.200000000
H     2.928000000    -6.067000000     1.462000000
O     1.853000000    -7.403000000    -4.893000000
H     1.106000000    -7.215000000    -5.461000000
H     1.571000000    -7.116000000    -4.024000000
O     0.085000000    -7.120000000     0.618000000
H     0.169000000    -6.319000000     0.101000000
H    -0.602000000    -7.619000000     0.177000000
O     5.984000000    -5.492000000     4.016000000
H     5.435000000    -5.099000000     3.338000000
H     6.454000000    -6.194000000     3.567000000
O     5.521000000    -5.878000000    -3.668000000
H     6.196000000    -6.530000000    -3.478000000
H     4.929000000    -5.921000000    -2.917000000
O     2.197000000   -10.225000000     1.221000000
H     1.625000000    -9.812000000     1.867000000
H     1.727000000   -10.135000000     0.392000000
