215
-1464.28229
C     4.849000000     0.809000000     1.357000000
H     4.465000000     0.499000000     2.325000000
C     4.190000000     1.814000000     0.636000000
C     4.601000000     2.114000000    -0.659000000
H     4.108000000     2.879000000    -1.253000000
C     2.999000000     2.490000000     1.211000000
O     3.108000000     2.635000000     2.617000000
H     2.086000000     1.976000000     0.877000000
O     2.858000000     3.815000000     0.659000000
C     1.559000000     4.209000000     0.284000000
C     1.166000000     4.207000000    -1.016000000
H     1.828000000     3.890000000    -1.819000000
C    -0.137000000     4.368000000    -1.302000000
O    -0.416000000     4.210000000    -2.664000000
C    -1.157000000     4.773000000    -0.346000000
C    -2.594000000     4.961000000    -0.815000000
H    -3.123000000     5.666000000    -0.170000000
C    -3.231000000     3.589000000    -0.900000000
C    -3.872000000     3.121000000     0.286000000
H    -3.885000000     3.783000000     1.148000000
H    -2.568000000     5.381000000    -1.823000000
C    -0.729000000     4.764000000     0.974000000
H    -1.542000000     5.014000000     1.652000000
C     0.607000000     4.531000000     1.270000000
C     0.991000000     4.689000000     2.771000000
H     0.249000000     5.354000000     3.217000000
H     2.007000000     5.088000000     2.807000000
C     0.962000000     3.319000000     3.446000000
C    -0.257000000     2.922000000     4.045000000
H    -1.085000000     3.624000000     3.990000000
C     2.031000000     2.431000000     3.442000000
C     1.931000000     1.177000000     4.033000000
H     2.754000000     0.471000000     3.958000000
C     0.714000000     0.752000000     4.566000000
O     0.632000000    -0.572000000     4.926000000
C    -0.005000000    -1.320000000     3.892000000
C     0.831000000    -2.593000000     3.656000000
C     0.283000000    -3.623000000     2.906000000
H    -0.715000000    -3.550000000     2.482000000
C     2.175000000    -2.768000000     4.171000000
H     2.574000000    -2.010000000     4.840000000
O    -1.361000000    -1.669000000     4.357000000
H    -0.063000000    -0.785000000     2.933000000
C    -0.382000000     1.628000000     4.639000000
C    -1.775000000     1.230000000     5.123000000
H    -2.414000000     2.071000000     5.400000000
H    -1.688000000     0.690000000     6.068000000
C    -2.600000000     0.463000000     4.075000000
C    -3.432000000     1.196000000     3.246000000
H    -3.464000000     2.274000000     3.383000000
C    -2.385000000    -0.897000000     3.802000000
C    -3.026000000    -1.585000000     2.781000000
H    -2.899000000    -2.663000000     2.724000000
C    -3.995000000    -0.886000000     2.105000000
O    -4.604000000    -1.645000000     1.158000000
C    -4.027000000    -1.367000000    -0.203000000
C    -3.895000000    -2.665000000    -1.062000000
C    -3.822000000    -3.967000000    -0.448000000
H    -4.003000000    -4.082000000     0.617000000
C    -3.711000000    -2.619000000    -2.428000000
H    -3.775000000    -1.678000000    -2.969000000
O    -4.807000000    -0.298000000    -0.816000000
H    -2.993000000    -1.025000000    -0.050000000
C    -4.208000000     0.504000000     2.363000000
C    -5.149000000     1.292000000     1.352000000
H    -5.609000000     2.160000000     1.828000000
H    -5.998000000     0.638000000     1.146000000
C    -4.438000000     1.833000000     0.242000000
C    -4.295000000     1.014000000    -0.853000000
C    -3.859000000     1.502000000    -2.032000000
H    -3.688000000     0.829000000    -2.868000000
C    -3.260000000     2.775000000    -2.002000000
O    -2.542000000     3.181000000    -3.128000000
C    -1.112000000     3.007000000    -3.028000000
H    -0.970000000     2.363000000    -2.147000000
C    -0.461000000     2.318000000    -4.237000000
C     0.882000000     2.397000000    -4.549000000
H     1.538000000     2.985000000    -3.912000000
C    -1.222000000     1.395000000    -4.971000000
H    -2.226000000     1.180000000    -4.612000000
C    -0.679000000     0.688000000    -6.059000000
O    -1.381000000    -0.238000000    -6.722000000
C     0.671000000     0.831000000    -6.363000000
H     1.084000000     0.292000000    -7.213000000
C     1.448000000     1.696000000    -5.611000000
O     2.808000000     1.737000000    -5.827000000
C     3.678000000     2.489000000    -5.076000000
C     4.528000000     1.763000000    -4.166000000
H     4.408000000     0.694000000    -4.011000000
C     3.739000000     3.854000000    -5.110000000
H     2.962000000     4.316000000    -5.714000000
C     4.548000000     4.626000000    -4.269000000
H     4.560000000     5.713000000    -4.238000000
C     5.394000000     3.852000000    -3.382000000
H     6.085000000     4.358000000    -2.712000000
C     5.442000000     2.435000000    -3.364000000
O     6.148000000     1.831000000    -2.404000000
C     5.718000000     1.504000000    -1.177000000
C     6.408000000     0.535000000    -0.482000000
H     7.210000000     0.027000000    -1.011000000
C     5.987000000     0.238000000     0.794000000
O     6.581000000    -0.846000000     1.430000000
C     6.295000000    -1.231000000     2.700000000
C     5.448000000    -2.360000000     2.846000000
H     4.861000000    -2.733000000     2.011000000
C     6.993000000    -0.747000000     3.881000000
H     7.790000000    -0.013000000     3.800000000
C     6.739000000    -1.360000000     5.177000000
H     7.380000000    -1.049000000     5.998000000
C     5.844000000    -2.399000000     5.267000000
H     5.505000000    -2.717000000     6.250000000
C     5.153000000    -2.821000000     4.091000000
O     4.266000000    -3.892000000     4.154000000
C     2.953000000    -3.820000000     3.714000000
C     2.462000000    -4.772000000     2.894000000
H     3.076000000    -5.564000000     2.471000000
C     1.117000000    -4.698000000     2.584000000
O     0.570000000    -5.717000000     1.764000000
C    -0.724000000    -6.100000000     1.731000000
C    -1.487000000    -6.027000000     0.567000000
H    -1.034000000    -5.523000000    -0.283000000
C    -1.304000000    -6.639000000     2.887000000
H    -0.716000000    -6.630000000     3.802000000
C    -2.578000000    -7.215000000     2.838000000
H    -2.950000000    -7.535000000     3.809000000
C    -3.279000000    -7.159000000     1.655000000
H    -4.261000000    -7.622000000     1.595000000
C    -2.756000000    -6.556000000     0.468000000
O    -3.530000000    -6.445000000    -0.630000000
C    -3.732000000    -5.159000000    -1.177000000
C    -3.738000000    -5.052000000    -2.571000000
H    -3.772000000    -5.993000000    -3.114000000
C    -3.713000000    -3.781000000    -3.179000000
O    -3.815000000    -3.707000000    -4.579000000
C    -3.776000000    -2.496000000    -5.242000000
C    -4.972000000    -1.810000000    -5.502000000
H    -5.926000000    -2.204000000    -5.161000000
C    -4.942000000    -0.574000000    -6.088000000
H    -5.842000000    -0.009000000    -6.314000000
C    -3.801000000    -0.040000000    -6.575000000
H    -3.747000000     0.959000000    -7.002000000
C    -2.584000000    -0.729000000    -6.347000000
C    -2.602000000    -1.937000000    -5.692000000
H    -1.664000000    -2.444000000    -5.482000000
C     1.634000000    -1.792000000     0.330000000
H     2.435000000    -2.127000000     0.985000000
C     0.953000000    -0.637000000     0.652000000
H     1.413000000     0.023000000     1.383000000
C    -0.127000000    -0.107000000    -0.038000000
H    -0.683000000     0.782000000     0.238000000
C    -0.486000000    -0.864000000    -1.150000000
H    -1.379000000    -0.581000000    -1.702000000
C     0.112000000    -2.083000000    -1.549000000
H    -0.373000000    -2.755000000    -2.252000000
C     1.223000000    -2.548000000    -0.828000000
C     1.937000000    -3.872000000    -1.178000000
O     1.539000000    -4.616000000    -2.004000000
O     3.110000000    -3.932000000    -0.852000000
O     2.716000000    -6.963000000    -1.585000000
H     2.575000000    -7.252000000    -2.487000000
H     2.412000000    -6.055000000    -1.574000000
O     4.813000000    -5.052000000    -2.939000000
H     4.285000000    -4.768000000    -2.194000000
H     4.179000000    -5.424000000    -3.553000000
O     7.421000000    -3.892000000    -3.523000000
H     7.270000000    -3.504000000    -2.662000000
H     6.984000000    -4.743000000    -3.483000000
O     8.068000000    -5.758000000    -0.323000000
H     7.983000000    -5.146000000     0.408000000
H     7.197000000    -6.145000000    -0.414000000
O     6.400000000    -3.031000000    -0.829000000
H     6.626000000    -2.374000000    -0.172000000
H     6.169000000    -3.809000000    -0.321000000
O    -2.358000000    -6.410000000    -6.088000000
H    -1.932000000    -7.195000000    -6.433000000
H    -1.818000000    -6.154000000    -5.340000000
O     4.057000000    -1.752000000    -2.439000000
H     4.845000000    -2.089000000    -2.012000000
H     3.335000000    -2.180000000    -1.979000000
O     5.023000000    -4.980000000     0.533000000
H     4.955000000    -5.891000000     0.245000000
H     4.265000000    -4.547000000     0.139000000
O     2.622000000    -5.163000000    -4.588000000
H     2.160000000    -5.981000000    -4.771000000
H     2.073000000    -4.718000000    -3.942000000
O     4.604000000    -2.491000000    -4.867000000
H     4.099000000    -1.982000000    -4.233000000
H     4.867000000    -3.277000000    -4.387000000
O    -1.113000000    -8.470000000    -2.240000000
H    -0.360000000    -8.771000000    -1.733000000
H    -1.786000000    -9.134000000    -2.089000000
O     0.717000000    -9.024000000    -4.461000000
H     0.981000000    -9.574000000    -3.723000000
H     0.231000000    -8.303000000    -4.060000000
O     5.797000000    -7.711000000    -0.963000000
H     6.077000000    -8.209000000    -1.730000000
H     4.845000000    -7.809000000    -0.948000000
O     1.316000000    -9.592000000    -1.508000000
H     1.595000000   -10.467000000    -1.238000000
H     1.492000000    -9.038000000    -0.748000000
O    -0.711000000    -5.978000000    -3.618000000
H    -0.030000000    -5.553000000    -3.097000000
H    -0.941000000    -6.762000000    -3.119000000
O     3.370000000    -8.038000000    -4.723000000
H     4.093000000    -8.653000000    -4.844000000
H     2.582000000    -8.566000000    -4.853000000
O     6.140000000    -6.058000000     3.519000000
H     5.430000000    -5.439000000     3.347000000
H     6.897000000    -5.506000000     3.715000000
O     3.856000000    -4.381000000    -7.339000000
H     3.724000000    -5.309000000    -7.148000000
H     3.952000000    -3.970000000    -6.480000000
O     2.030000000    -8.125000000     0.942000000
H     1.365000000    -7.464000000     1.135000000
H     2.623000000    -7.696000000     0.325000000
