215
-1467.77099
C    -4.027000000    -1.063000000    -2.071000000
H    -3.758000000    -0.088000000    -2.467000000
C    -4.323000000    -1.260000000    -0.707000000
C    -4.438000000    -2.598000000    -0.359000000
H    -4.488000000    -2.919000000     0.678000000
C    -4.233000000    -0.133000000     0.314000000
O    -4.906000000     1.019000000    -0.165000000
H    -3.165000000     0.105000000     0.426000000
O    -4.551000000    -0.508000000     1.617000000
C    -3.675000000    -0.232000000     2.667000000
C    -2.891000000    -1.281000000     3.082000000
H    -2.965000000    -2.272000000     2.642000000
C    -1.977000000    -1.097000000     4.124000000
O    -1.092000000    -2.097000000     4.387000000
C    -1.727000000     0.228000000     4.570000000
C    -0.619000000     0.621000000     5.533000000
H    -0.927000000     1.480000000     6.132000000
C     0.691000000     0.858000000     4.805000000
C     1.052000000     2.100000000     4.454000000
H     0.330000000     2.842000000     4.787000000
H    -0.480000000    -0.195000000     6.244000000
C    -2.683000000     1.254000000     4.235000000
H    -2.682000000     2.275000000     4.606000000
C    -3.613000000     1.008000000     3.272000000
C    -4.378000000     2.208000000     2.665000000
H    -4.382000000     3.062000000     3.346000000
H    -5.399000000     1.854000000     2.510000000
C    -3.845000000     2.677000000     1.385000000
C    -3.031000000     3.837000000     1.423000000
H    -2.832000000     4.439000000     2.307000000
C    -4.170000000     2.176000000     0.121000000
C    -3.556000000     2.699000000    -1.047000000
H    -3.915000000     2.322000000    -2.002000000
C    -2.638000000     3.727000000    -0.950000000
O    -1.970000000     3.995000000    -2.122000000
C    -0.628000000     3.590000000    -2.296000000
C    -0.352000000     3.153000000    -3.762000000
C     0.944000000     3.177000000    -4.226000000
H     1.826000000     3.409000000    -3.635000000
C    -1.423000000     2.876000000    -4.644000000
H    -2.387000000     2.754000000    -4.156000000
O     0.239000000     4.677000000    -1.941000000
H    -0.380000000     2.756000000    -1.623000000
C    -2.341000000     4.318000000     0.267000000
C    -1.406000000     5.484000000     0.464000000
H    -1.748000000     6.097000000     1.300000000
H    -1.551000000     6.228000000    -0.322000000
C     0.033000000     5.019000000     0.574000000
C     0.567000000     4.678000000     1.791000000
H     0.057000000     4.887000000     2.728000000
C     0.714000000     4.573000000    -0.612000000
C     1.978000000     4.029000000    -0.406000000
H     2.511000000     3.810000000    -1.328000000
C     2.528000000     3.615000000     0.805000000
O     3.781000000     2.977000000     0.805000000
C     3.792000000     1.599000000     1.149000000
C     4.733000000     0.710000000     0.278000000
C     4.809000000     0.924000000    -1.095000000
H     4.343000000     1.797000000    -1.544000000
C     5.387000000    -0.377000000     0.830000000
H     5.208000000    -0.622000000     1.874000000
O     4.118000000     1.437000000     2.551000000
H     2.850000000     1.056000000     0.979000000
C     1.790000000     3.997000000     1.930000000
C     2.391000000     3.727000000     3.311000000
H     1.830000000     4.353000000     4.008000000
H     3.438000000     4.031000000     3.259000000
C     2.192000000     2.289000000     3.695000000
C     3.010000000     1.252000000     3.313000000
C     2.668000000    -0.041000000     3.625000000
H     3.278000000    -0.904000000     3.369000000
C     1.504000000    -0.202000000     4.383000000
O     1.148000000    -1.538000000     4.500000000
C     0.188000000    -2.183000000     3.653000000
H     0.093000000    -1.528000000     2.774000000
C     0.544000000    -3.539000000     3.154000000
C    -0.489000000    -4.428000000     2.951000000
H    -1.515000000    -4.316000000     3.293000000
C     1.782000000    -3.720000000     2.647000000
H     2.591000000    -3.010000000     2.801000000
C     2.029000000    -4.892000000     1.960000000
O     3.162000000    -5.053000000     1.302000000
C     1.050000000    -5.800000000     1.716000000
H     1.276000000    -6.727000000     1.195000000
C    -0.179000000    -5.517000000     2.233000000
O    -1.246000000    -6.473000000     2.094000000
C    -2.582000000    -6.195000000     1.865000000
C    -2.862000000    -5.692000000     0.660000000
H    -2.157000000    -5.521000000    -0.151000000
C    -3.526000000    -6.607000000     2.785000000
H    -3.164000000    -7.138000000     3.662000000
C    -4.859000000    -6.286000000     2.576000000
H    -5.674000000    -6.516000000     3.258000000
C    -5.187000000    -5.754000000     1.301000000
H    -6.211000000    -5.590000000     0.978000000
C    -4.199000000    -5.424000000     0.380000000
O    -4.571000000    -4.932000000    -0.846000000
C    -4.304000000    -3.685000000    -1.252000000
C    -4.125000000    -3.397000000    -2.612000000
H    -4.037000000    -4.275000000    -3.247000000
C    -3.938000000    -2.083000000    -3.012000000
O    -3.439000000    -1.783000000    -4.280000000
C    -3.884000000    -0.629000000    -4.852000000
C    -2.929000000     0.232000000    -5.438000000
H    -1.885000000    -0.069000000    -5.408000000
C    -5.289000000    -0.349000000    -4.987000000
H    -6.113000000    -0.936000000    -4.588000000
C    -5.651000000     0.822000000    -5.682000000
H    -6.733000000     0.913000000    -5.732000000
C    -4.725000000     1.637000000    -6.301000000
H    -4.972000000     2.455000000    -6.973000000
C    -3.332000000     1.357000000    -6.149000000
O    -2.384000000     2.292000000    -6.798000000
C    -1.214000000     2.534000000    -5.975000000
C     0.082000000     2.531000000    -6.484000000
H     0.273000000     2.267000000    -7.520000000
C     1.124000000     2.812000000    -5.617000000
O     2.412000000     2.787000000    -6.133000000
C     3.581000000     2.626000000    -5.453000000
C     3.887000000     1.352000000    -4.905000000
H     3.274000000     0.510000000    -5.217000000
C     4.347000000     3.760000000    -5.195000000
H     4.008000000     4.741000000    -5.519000000
C     5.472000000     3.601000000    -4.403000000
H     6.117000000     4.475000000    -4.350000000
C     5.859000000     2.353000000    -3.927000000
H     6.830000000     2.229000000    -3.455000000
C     4.969000000     1.282000000    -4.055000000
O     5.214000000     0.133000000    -3.344000000
C     5.370000000    -0.011000000    -1.960000000
C     6.247000000    -0.992000000    -1.376000000
H     6.830000000    -1.672000000    -1.992000000
C     6.170000000    -1.186000000     0.047000000
O     6.821000000    -2.258000000     0.606000000
C     6.218000000    -3.121000000     1.419000000
C     6.625000000    -3.274000000     2.721000000
H     7.470000000    -2.826000000     3.237000000
C     5.908000000    -4.261000000     3.520000000
H     6.211000000    -4.385000000     4.557000000
C     4.823000000    -4.961000000     2.986000000
H     4.334000000    -5.734000000     3.572000000
C     4.347000000    -4.553000000     1.730000000
C     5.011000000    -3.658000000     0.956000000
H     4.617000000    -3.434000000    -0.032000000
C    -0.339000000    -2.951000000    -0.247000000
H    -1.073000000    -3.741000000    -0.107000000
C    -0.591000000    -1.645000000     0.277000000
H    -1.407000000    -1.469000000     0.973000000
C     0.237000000    -0.577000000    -0.035000000
H    -0.067000000     0.336000000     0.424000000
C     1.418000000    -0.785000000    -0.823000000
H     2.051000000     0.074000000    -1.028000000
C     1.730000000    -2.046000000    -1.260000000
H     2.673000000    -2.162000000    -1.788000000
C     0.839000000    -3.143000000    -1.028000000
C     1.182000000    -4.439000000    -1.650000000
O     2.232000000    -4.525000000    -2.309000000
O     0.392000000    -5.352000000    -1.683000000
O     5.088000000    -6.340000000    -4.397000000
H     4.675000000    -7.202000000    -4.356000000
H     4.650000000    -5.832000000    -3.715000000
O     3.479000000    -6.679000000    -0.896000000
H     3.551000000    -6.004000000    -0.220000000
H     2.828000000    -6.337000000    -1.508000000
O    -3.667000000    -7.049000000    -3.011000000
H    -2.966000000    -6.402000000    -3.090000000
H    -3.684000000    -7.272000000    -2.081000000
O     6.587000000    -4.203000000    -5.356000000
H     6.076000000    -3.423000000    -5.141000000
H     6.012000000    -4.935000000    -5.131000000
O     3.772000000    -9.036000000    -4.278000000
H     3.672000000    -9.899000000    -4.679000000
H     2.993000000    -8.553000000    -4.553000000
O    -1.084000000    -3.970000000    -5.732000000
H    -0.142000000    -4.102000000    -5.623000000
H    -1.158000000    -3.365000000    -6.470000000
O     4.758000000    -4.024000000    -2.691000000
H     4.869000000    -3.519000000    -3.496000000
H     3.820000000    -3.977000000    -2.506000000
O     7.264000000    -4.724000000    -1.797000000
H     6.347000000    -4.449000000    -1.789000000
H     7.535000000    -4.628000000    -2.710000000
O    -1.287000000    -8.416000000    -3.635000000
H    -2.141000000    -8.692000000    -3.304000000
H    -1.257000000    -7.474000000    -3.465000000
O     0.511000000    -7.887000000    -1.060000000
H     0.392000000    -6.977000000    -1.332000000
H     0.496000000    -8.385000000    -1.877000000
O     1.339000000    -7.739000000    -4.639000000
H     0.516000000    -8.107000000    -4.320000000
H     1.391000000    -8.024000000    -5.552000000
O     4.866000000    -8.831000000    -1.769000000
H     4.542000000    -8.849000000    -2.669000000
H     4.449000000    -8.062000000    -1.380000000
O    -0.238000000    -1.437000000    -3.454000000
H    -0.384000000    -1.532000000    -2.513000000
H    -1.049000000    -1.750000000    -3.856000000
O    -1.644000000    -5.397000000    -3.317000000
H    -1.340000000    -4.907000000    -4.081000000
H    -0.942000000    -5.298000000    -2.674000000
O    -1.388000000    -9.380000000     0.308000000
H    -0.851000000    -9.829000000     0.961000000
H    -0.807000000    -8.718000000    -0.065000000
O     4.789000000    -2.274000000    -4.862000000
H     4.950000000    -1.469000000    -4.371000000
H     3.991000000    -2.096000000    -5.359000000
O     1.195000000    -4.762000000    -4.627000000
H     1.542000000    -4.581000000    -3.753000000
H     1.436000000    -5.672000000    -4.796000000
O     2.644000000    -8.936000000     0.894000000
H     1.985000000    -8.701000000     0.240000000
H     3.425000000    -8.450000000     0.631000000
O     1.822000000    -2.019000000    -5.105000000
H     1.184000000    -1.450000000    -4.675000000
H     1.670000000    -2.883000000    -4.723000000
