215
-1445.19117
C     4.823000000     1.718000000     1.262000000
H     4.530000000     1.326000000     2.233000000
C     4.025000000     2.689000000     0.585000000
C     4.380000000     3.120000000    -0.653000000
H     3.623000000     3.658000000    -1.219000000
C     2.681000000     3.071000000     1.174000000
O     2.648000000     2.953000000     2.629000000
H     1.925000000     2.388000000     0.759000000
O     2.294000000     4.439000000     0.755000000
C     0.965000000     4.531000000     0.538000000
C     0.630000000     4.372000000    -0.768000000
H     1.464000000     4.421000000    -1.462000000
C    -0.694000000     4.371000000    -1.196000000
O    -1.071000000     4.178000000    -2.515000000
C    -1.686000000     4.520000000    -0.243000000
C    -3.194000000     4.491000000    -0.587000000
H    -3.742000000     5.078000000     0.153000000
C    -3.750000000     3.029000000    -0.582000000
C    -4.360000000     2.502000000     0.554000000
H    -4.634000000     3.187000000     1.352000000
H    -3.293000000     4.939000000    -1.578000000
C    -1.429000000     4.672000000     1.118000000
H    -2.145000000     4.828000000     1.921000000
C    -0.055000000     4.648000000     1.526000000
C     0.189000000     4.563000000     3.031000000
H    -0.743000000     4.934000000     3.463000000
H     1.069000000     5.086000000     3.411000000
C     0.383000000     3.128000000     3.461000000
C    -0.624000000     2.524000000     4.183000000
H    -1.598000000     2.991000000     4.302000000
C     1.624000000     2.425000000     3.313000000
C     1.798000000     1.115000000     3.736000000
H     2.715000000     0.586000000     3.491000000
C     0.732000000     0.555000000     4.407000000
O     0.834000000    -0.768000000     4.586000000
C     0.181000000    -1.697000000     3.702000000
C     1.158000000    -2.772000000     3.252000000
C     0.810000000    -4.004000000     2.676000000
H    -0.255000000    -4.167000000     2.531000000
C     2.540000000    -2.600000000     3.511000000
H     2.934000000    -1.634000000     3.817000000
O    -0.949000000    -2.266000000     4.305000000
H    -0.186000000    -1.150000000     2.821000000
C    -0.460000000     1.188000000     4.672000000
C    -1.656000000     0.517000000     5.353000000
H    -2.380000000     1.226000000     5.762000000
H    -1.402000000    -0.167000000     6.164000000
C    -2.480000000    -0.335000000     4.331000000
C    -3.480000000     0.285000000     3.639000000
H    -3.500000000     1.320000000     3.971000000
C    -2.138000000    -1.658000000     4.007000000
C    -2.829000000    -2.316000000     2.955000000
H    -2.574000000    -3.351000000     2.744000000
C    -3.821000000    -1.682000000     2.281000000
O    -4.355000000    -2.294000000     1.170000000
C    -3.848000000    -1.971000000    -0.148000000
C    -3.678000000    -3.176000000    -0.999000000
C    -3.304000000    -4.448000000    -0.536000000
H    -3.114000000    -4.482000000     0.534000000
C    -3.675000000    -2.974000000    -2.387000000
H    -3.868000000    -1.971000000    -2.757000000
O    -4.829000000    -0.974000000    -0.683000000
H    -2.928000000    -1.387000000     0.007000000
C    -4.218000000    -0.363000000     2.650000000
C    -5.241000000     0.397000000     1.855000000
H    -5.641000000     1.220000000     2.451000000
H    -6.031000000    -0.285000000     1.534000000
C    -4.687000000     1.138000000     0.591000000
C    -4.543000000     0.397000000    -0.583000000
C    -4.017000000     0.941000000    -1.713000000
H    -3.954000000     0.278000000    -2.572000000
C    -3.576000000     2.217000000    -1.749000000
O    -2.783000000     2.547000000    -2.788000000
C    -1.288000000     2.757000000    -2.763000000
H    -0.875000000     2.204000000    -1.906000000
C    -0.621000000     2.288000000    -3.990000000
C     0.626000000     2.734000000    -4.274000000
H     1.077000000     3.517000000    -3.670000000
C    -1.225000000     1.372000000    -4.764000000
H    -2.172000000     0.950000000    -4.439000000
C    -0.571000000     0.735000000    -5.780000000
O    -1.109000000    -0.357000000    -6.394000000
C     0.640000000     1.179000000    -6.173000000
H     1.274000000     0.731000000    -6.933000000
C     1.243000000     2.217000000    -5.421000000
O     2.574000000     2.395000000    -5.633000000
C     3.406000000     3.261000000    -4.980000000
C     4.343000000     2.823000000    -4.076000000
H     4.541000000     1.756000000    -4.002000000
C     3.148000000     4.608000000    -5.149000000
H     2.442000000     4.902000000    -5.921000000
C     3.960000000     5.464000000    -4.482000000
H     3.799000000     6.521000000    -4.679000000
C     4.801000000     5.019000000    -3.465000000
H     5.233000000     5.706000000    -2.741000000
C     5.128000000     3.685000000    -3.333000000
O     6.021000000     3.242000000    -2.422000000
C     5.632000000     2.750000000    -1.175000000
C     6.537000000     1.943000000    -0.440000000
H     7.483000000     1.725000000    -0.929000000
C     6.109000000     1.288000000     0.728000000
O     6.903000000     0.337000000     1.258000000
C     6.614000000    -0.347000000     2.397000000
C     5.865000000    -1.548000000     2.277000000
H     5.630000000    -2.040000000     1.337000000
C     6.681000000     0.276000000     3.627000000
H     7.063000000     1.292000000     3.686000000
C     6.390000000    -0.472000000     4.755000000
H     6.640000000    -0.037000000     5.720000000
C     5.788000000    -1.683000000     4.674000000
H     5.499000000    -2.157000000     5.609000000
C     5.518000000    -2.221000000     3.436000000
O     4.856000000    -3.440000000     3.334000000
C     3.462000000    -3.617000000     3.170000000
C     3.081000000    -4.800000000     2.592000000
H     3.854000000    -5.494000000     2.273000000
C     1.736000000    -4.988000000     2.297000000
O     1.341000000    -6.146000000     1.736000000
C     0.087000000    -6.567000000     1.656000000
C    -0.535000000    -6.343000000     0.471000000
H    -0.003000000    -5.913000000    -0.375000000
C    -0.516000000    -7.090000000     2.781000000
H     0.125000000    -7.161000000     3.656000000
C    -1.914000000    -7.458000000     2.684000000
H    -2.417000000    -7.907000000     3.537000000
C    -2.564000000    -7.246000000     1.448000000
H    -3.601000000    -7.571000000     1.427000000
C    -1.869000000    -6.735000000     0.348000000
O    -2.525000000    -6.700000000    -0.911000000
C    -3.025000000    -5.513000000    -1.379000000
C    -3.233000000    -5.341000000    -2.754000000
H    -3.133000000    -6.159000000    -3.463000000
C    -3.509000000    -4.057000000    -3.244000000
O    -3.761000000    -3.999000000    -4.584000000
C    -3.754000000    -2.821000000    -5.309000000
C    -4.908000000    -2.092000000    -5.682000000
H    -5.854000000    -2.623000000    -5.608000000
C    -4.753000000    -0.860000000    -6.272000000
H    -5.623000000    -0.353000000    -6.682000000
C    -3.507000000    -0.313000000    -6.491000000
H    -3.422000000     0.706000000    -6.860000000
C    -2.363000000    -0.962000000    -6.134000000
C    -2.470000000    -2.249000000    -5.544000000
H    -1.564000000    -2.773000000    -5.249000000
C     1.816000000    -1.376000000    -0.365000000
H     2.800000000    -1.715000000    -0.048000000
C     1.120000000    -0.387000000     0.377000000
H     1.628000000    -0.014000000     1.263000000
C    -0.151000000     0.072000000     0.027000000
H    -0.694000000     0.828000000     0.615000000
C    -0.737000000    -0.456000000    -1.126000000
H    -1.753000000    -0.195000000    -1.413000000
C    -0.082000000    -1.492000000    -1.835000000
H    -0.589000000    -1.922000000    -2.695000000
C     1.189000000    -1.907000000    -1.481000000
C     1.911000000    -2.945000000    -2.335000000
O     1.405000000    -3.497000000    -3.329000000
O     3.103000000    -3.126000000    -2.222000000
O     3.701000000    -5.960000000    -1.786000000
H     2.948000000    -6.550000000    -1.832000000
H     3.350000000    -5.104000000    -2.031000000
O     5.021000000    -4.143000000    -3.994000000
H     4.545000000    -3.636000000    -3.336000000
H     4.345000000    -4.657000000    -4.436000000
O     7.739000000    -4.122000000    -4.334000000
H     8.000000000    -3.555000000    -3.608000000
H     6.815000000    -4.311000000    -4.170000000
O     2.491000000    -6.864000000    -7.685000000
H     1.714000000    -6.307000000    -7.629000000
H     2.951000000    -6.717000000    -6.859000000
O     7.427000000    -2.694000000    -1.856000000
H     8.115000000    -2.521000000    -1.213000000
H     6.643000000    -2.857000000    -1.330000000
O     0.010000000    -5.454000000    -6.931000000
H    -0.057000000    -6.388000000    -7.130000000
H    -0.371000000    -5.367000000    -6.057000000
O     3.966000000    -0.895000000    -3.828000000
H     3.361000000    -0.449000000    -3.236000000
H     4.237000000    -1.678000000    -3.348000000
O     1.614000000    -2.108000000    -5.645000000
H     1.103000000    -1.342000000    -5.384000000
H     1.644000000    -2.655000000    -4.861000000
O     5.118000000    -3.740000000    -0.747000000
H     4.888000000    -4.294000000    -0.001000000
H     4.282000000    -3.553000000    -1.173000000
O     2.790000000    -5.192000000    -5.051000000
H     2.025000000    -5.315000000    -5.613000000
H     2.462000000    -4.688000000    -4.306000000
O     4.505000000    -0.904000000    -6.552000000
H     4.213000000    -0.889000000    -5.641000000
H     4.217000000    -1.755000000    -6.882000000
O     1.782000000    -7.670000000    -2.458000000
H     1.577000000    -7.826000000    -3.380000000
H     1.357000000    -8.390000000    -1.993000000
O     6.539000000    -6.492000000    -2.289000000
H     6.387000000    -7.432000000    -2.389000000
H     5.677000000    -6.095000000    -2.418000000
O     0.646000000    -3.061000000    -8.113000000
H     1.031000000    -2.440000000    -7.495000000
H     0.703000000    -3.908000000    -7.670000000
O    -0.411000000    -5.033000000    -4.219000000
H     0.187000000    -4.440000000    -3.764000000
H    -0.891000000    -5.473000000    -3.517000000
O     4.696000000    -3.845000000    -6.739000000
H     5.166000000    -3.778000000    -5.907000000
H     3.916000000    -4.360000000    -6.533000000
O     6.810000000    -0.885000000    -4.464000000
H     5.922000000    -0.643000000    -4.726000000
H     6.689000000    -1.457000000    -3.707000000
O     4.629000000    -7.177000000     0.705000000
H     5.561000000    -7.066000000     0.894000000
H     4.490000000    -6.691000000    -0.108000000
O     5.564000000    -6.940000000    -5.568000000
H     5.923000000    -6.743000000    -4.703000000
H     5.358000000    -7.875000000    -5.535000000
