215
-1418.64604
C     4.982000000     1.546000000     1.877000000
H     4.688000000     0.951000000     2.739000000
C     4.060000000     2.447000000     1.356000000
C     4.355000000     3.025000000     0.108000000
H     3.650000000     3.690000000    -0.384000000
C     2.751000000     2.759000000     2.053000000
O     2.805000000     2.410000000     3.447000000
H     1.963000000     2.156000000     1.578000000
O     2.352000000     4.156000000     1.804000000
C     1.042000000     4.365000000     1.583000000
C     0.728000000     4.676000000     0.222000000
H     1.509000000     4.857000000    -0.511000000
C    -0.594000000     4.676000000    -0.066000000
O    -0.958000000     4.775000000    -1.419000000
C    -1.585000000     4.473000000     0.908000000
C    -3.125000000     4.526000000     0.569000000
H    -3.709000000     4.868000000     1.426000000
C    -3.610000000     3.158000000     0.218000000
C    -4.089000000     2.248000000     1.161000000
H    -4.086000000     2.486000000     2.222000000
H    -3.246000000     5.174000000    -0.302000000
C    -1.259000000     4.369000000     2.265000000
H    -2.006000000     4.259000000     3.047000000
C     0.100000000     4.191000000     2.580000000
C     0.428000000     3.904000000     4.035000000
H    -0.268000000     4.435000000     4.688000000
H     1.349000000     4.383000000     4.374000000
C     0.595000000     2.445000000     4.297000000
C    -0.513000000     1.713000000     4.713000000
H    -1.533000000     2.058000000     4.863000000
C     1.751000000     1.791000000     4.013000000
C     1.868000000     0.474000000     4.201000000
H     2.804000000    -0.076000000     4.145000000
C     0.804000000    -0.263000000     4.663000000
O     0.922000000    -1.611000000     4.509000000
C     0.309000000    -2.299000000     3.441000000
C     1.249000000    -3.313000000     2.740000000
C     0.656000000    -4.438000000     2.168000000
H    -0.385000000    -4.716000000     2.307000000
C     2.629000000    -3.014000000     2.544000000
H     3.005000000    -2.101000000     2.998000000
O    -0.944000000    -2.913000000     3.882000000
H     0.084000000    -1.661000000     2.573000000
C    -0.424000000     0.360000000     4.861000000
C    -1.630000000    -0.514000000     5.214000000
H    -2.286000000     0.025000000     5.900000000
H    -1.468000000    -1.414000000     5.812000000
C    -2.393000000    -1.001000000     4.024000000
C    -3.521000000    -0.317000000     3.501000000
H    -3.977000000     0.559000000     3.956000000
C    -2.037000000    -2.244000000     3.381000000
C    -2.691000000    -2.766000000     2.260000000
H    -2.363000000    -3.698000000     1.807000000
C    -3.761000000    -2.068000000     1.822000000
O    -4.366000000    -2.420000000     0.642000000
C    -3.825000000    -1.855000000    -0.540000000
C    -3.694000000    -2.748000000    -1.750000000
C    -3.489000000    -4.088000000    -1.477000000
H    -3.588000000    -4.472000000    -0.465000000
C    -3.457000000    -2.347000000    -3.053000000
H    -3.334000000    -1.288000000    -3.262000000
O    -4.666000000    -0.729000000    -1.009000000
H    -2.792000000    -1.606000000    -0.254000000
C    -4.145000000    -0.849000000     2.406000000
C    -5.134000000     0.077000000     1.739000000
H    -5.783000000     0.566000000     2.469000000
H    -5.897000000    -0.522000000     1.238000000
C    -4.481000000     1.019000000     0.725000000
C    -4.361000000     0.595000000    -0.581000000
C    -3.787000000     1.458000000    -1.533000000
H    -3.616000000     1.204000000    -2.577000000
C    -3.423000000     2.766000000    -1.106000000
O    -2.899000000     3.610000000    -2.096000000
C    -1.507000000     3.616000000    -2.083000000
H    -1.204000000     2.781000000    -1.434000000
C    -0.891000000     3.329000000    -3.423000000
C     0.500000000     3.413000000    -3.573000000
H     1.035000000     3.942000000    -2.789000000
C    -1.719000000     2.809000000    -4.370000000
H    -2.781000000     2.652000000    -4.198000000
C    -1.175000000     2.322000000    -5.534000000
O    -1.887000000     1.777000000    -6.634000000
C     0.199000000     2.523000000    -5.767000000
H     0.663000000     2.146000000    -6.675000000
C     1.067000000     3.038000000    -4.735000000
O     2.441000000     3.066000000    -4.951000000
C     3.358000000     3.849000000    -4.255000000
C     4.268000000     3.193000000    -3.490000000
H     4.337000000     2.110000000    -3.435000000
C     3.229000000     5.205000000    -4.223000000
H     2.504000000     5.659000000    -4.893000000
C     4.081000000     5.937000000    -3.388000000
H     4.112000000     7.015000000    -3.253000000
C     4.975000000     5.198000000    -2.602000000
H     5.663000000     5.809000000    -2.023000000
C     5.063000000     3.876000000    -2.637000000
O     5.960000000     3.172000000    -1.787000000
C     5.592000000     2.726000000    -0.565000000
C     6.521000000     1.975000000     0.094000000
H     7.498000000     1.825000000    -0.358000000
C     6.202000000     1.297000000     1.250000000
O     7.061000000     0.571000000     2.066000000
C     6.683000000    -0.674000000     2.492000000
C     5.888000000    -1.483000000     1.672000000
H     5.397000000    -1.036000000     0.811000000
C     7.218000000    -1.166000000     3.654000000
H     7.937000000    -0.561000000     4.200000000
C     6.860000000    -2.436000000     4.011000000
H     7.420000000    -2.872000000     4.835000000
C     6.080000000    -3.245000000     3.200000000
H     5.747000000    -4.231000000     3.515000000
C     5.558000000    -2.704000000     2.033000000
O     4.660000000    -3.514000000     1.397000000
C     3.385000000    -3.864000000     1.705000000
C     2.891000000    -5.050000000     1.226000000
H     3.540000000    -5.805000000     0.788000000
C     1.504000000    -5.317000000     1.514000000
O     0.986000000    -6.508000000     0.877000000
C    -0.357000000    -6.728000000     0.596000000
C    -0.972000000    -6.457000000    -0.610000000
H    -0.356000000    -6.102000000    -1.433000000
C    -1.052000000    -7.505000000     1.545000000
H    -0.660000000    -7.931000000     2.465000000
C    -2.410000000    -7.776000000     1.328000000
H    -2.975000000    -8.257000000     2.122000000
C    -3.071000000    -7.269000000     0.173000000
H    -4.112000000    -7.516000000    -0.021000000
C    -2.338000000    -6.623000000    -0.854000000
O    -2.906000000    -6.292000000    -2.003000000
C    -3.120000000    -5.003000000    -2.470000000
C    -3.002000000    -4.616000000    -3.774000000
H    -2.769000000    -5.329000000    -4.560000000
C    -3.090000000    -3.286000000    -4.067000000
O    -2.866000000    -2.800000000    -5.326000000
C    -3.252000000    -1.534000000    -5.765000000
C    -4.604000000    -1.413000000    -6.026000000
H    -5.326000000    -2.175000000    -5.743000000
C    -5.030000000    -0.213000000    -6.544000000
H    -6.084000000     0.011000000    -6.681000000
C    -4.086000000     0.855000000    -6.773000000
H    -4.405000000     1.769000000    -7.268000000
C    -2.732000000     0.689000000    -6.514000000
C    -2.323000000    -0.495000000    -5.946000000
H    -1.264000000    -0.663000000    -5.771000000
C     3.147000000    -0.310000000    -1.398000000
H     4.194000000    -0.530000000    -1.205000000
C     2.243000000     0.220000000    -0.402000000
H     2.558000000     0.286000000     0.636000000
C     0.957000000     0.393000000    -0.738000000
H     0.218000000     0.692000000     0.023000000
C     0.552000000     0.180000000    -2.128000000
H    -0.488000000     0.303000000    -2.420000000
C     1.535000000    -0.198000000    -3.101000000
H     1.214000000    -0.331000000    -4.131000000
C     2.859000000    -0.463000000    -2.745000000
C     3.756000000    -1.109000000    -3.820000000
O     3.223000000    -1.506000000    -4.866000000
O     4.914000000    -1.370000000    -3.540000000
O     3.056000000     2.602000000    -7.749000000
H     2.897000000     2.216000000    -6.887000000
H     3.086000000     1.853000000    -8.344000000
O     1.012000000    -2.720000000    -1.791000000
H     0.846000000    -1.926000000    -2.299000000
H     1.548000000    -2.425000000    -1.054000000
O     7.290000000    -4.237000000    -0.237000000
H     6.457000000    -3.823000000    -0.463000000
H     7.125000000    -4.662000000     0.605000000
O     7.471000000    -1.674000000    -7.516000000
H     7.791000000    -0.861000000    -7.123000000
H     7.219000000    -2.218000000    -6.770000000
O     6.174000000    -2.869000000    -5.312000000
H     5.515000000    -3.156000000    -5.944000000
H     5.668000000    -2.600000000    -4.545000000
O     4.802000000    -3.596000000    -7.550000000
H     4.084000000    -2.979000000    -7.695000000
H     4.369000000    -4.415000000    -7.310000000
O     6.477000000     0.706000000    -3.827000000
H     5.975000000    -0.091000000    -3.659000000
H     7.199000000     0.672000000    -3.199000000
O     4.472000000    -0.018000000    -6.951000000
H     3.957000000    -0.478000000    -7.613000000
H     4.644000000    -0.679000000    -6.280000000
O     4.878000000    -3.624000000    -2.027000000
H     3.980000000    -3.953000000    -2.069000000
H     4.846000000    -2.782000000    -2.481000000
O     3.244000000    -4.163000000    -4.800000000
H     2.591000000    -4.167000000    -4.100000000
H     3.406000000    -3.236000000    -4.972000000
O     2.790000000    -1.772000000    -8.502000000
H     1.918000000    -1.929000000    -8.140000000
H     2.653000000    -1.731000000    -9.448000000
O     3.311000000    -6.696000000    -5.958000000
H     3.029000000    -6.023000000    -5.340000000
H     3.832000000    -7.302000000    -5.432000000
O     5.748000000     2.134000000    -6.029000000
H     5.264000000     1.477000000    -6.530000000
H     6.132000000     1.646000000    -5.302000000
O     1.057000000    -5.069000000    -3.245000000
H     0.768000000    -4.300000000    -2.753000000
H     0.517000000    -5.065000000    -4.035000000
O     2.817000000    -7.037000000    -2.418000000
H     2.320000000    -6.220000000    -2.465000000
H     2.265000000    -7.679000000    -2.865000000
O     0.322000000    -0.212000000    -8.775000000
H     0.309000000    -0.355000000    -7.829000000
H    -0.265000000    -0.882000000    -9.126000000
O     1.056000000    -1.979000000    -6.328000000
H     1.899000000    -1.820000000    -5.904000000
H     1.037000000    -2.925000000    -6.476000000
O     8.850000000    -2.585000000    -4.395000000
H     7.904000000    -2.509000000    -4.519000000
H     8.995000000    -3.515000000    -4.223000000
O     7.195000000    -6.134000000    -5.341000000
H     6.509000000    -5.573000000    -4.979000000
H     7.960000000    -5.961000000    -4.793000000
