215
-1435.73967
C     5.437000000    -1.051000000     0.690000000
H     5.090000000    -1.810000000     1.386000000
C     5.070000000     0.262000000     0.811000000
C     5.534000000     1.208000000    -0.028000000
H     5.311000000     2.248000000     0.195000000
C     4.019000000     0.685000000     1.862000000
O     4.081000000    -0.135000000     3.057000000
H     3.056000000     0.529000000     1.354000000
O     4.131000000     2.175000000     2.147000000
C     2.997000000     2.917000000     2.358000000
C     2.499000000     3.541000000     1.244000000
H     3.012000000     3.425000000     0.292000000
C     1.253000000     4.149000000     1.297000000
O     0.803000000     4.724000000     0.163000000
C     0.480000000     4.071000000     2.426000000
C    -0.833000000     4.793000000     2.534000000
H    -1.019000000     4.949000000     3.598000000
C    -1.997000000     3.945000000     1.933000000
C    -2.856000000     3.126000000     2.788000000
H    -2.672000000     2.997000000     3.852000000
H    -0.767000000     5.794000000     2.103000000
C     0.970000000     3.342000000     3.549000000
H     0.346000000     3.327000000     4.439000000
C     2.169000000     2.752000000     3.470000000
C     2.449000000     1.786000000     4.615000000
H     1.899000000     2.130000000     5.493000000
H     3.524000000     1.722000000     4.795000000
C     1.961000000     0.359000000     4.235000000
C     0.716000000    -0.076000000     4.739000000
H     0.041000000     0.617000000     5.234000000
C     2.825000000    -0.508000000     3.629000000
C     2.395000000    -1.872000000     3.356000000
H     3.001000000    -2.539000000     2.750000000
C     1.141000000    -2.224000000     3.821000000
O     0.630000000    -3.403000000     3.473000000
C    -0.331000000    -3.510000000     2.409000000
C    -0.072000000    -4.589000000     1.432000000
C    -1.073000000    -5.393000000     0.923000000
H    -2.083000000    -5.391000000     1.325000000
C     1.215000000    -4.611000000     0.876000000
H     1.966000000    -3.892000000     1.192000000
O    -1.618000000    -3.574000000     3.042000000
H    -0.244000000    -2.566000000     1.850000000
C     0.308000000    -1.363000000     4.539000000
C    -1.065000000    -1.808000000     5.105000000
H    -1.183000000    -1.163000000     5.978000000
H    -1.029000000    -2.849000000     5.434000000
C    -2.142000000    -1.576000000     4.051000000
C    -2.905000000    -0.361000000     4.083000000
H    -2.756000000     0.252000000     4.968000000
C    -2.391000000    -2.467000000     3.049000000
C    -3.457000000    -2.309000000     2.221000000
H    -3.896000000    -3.101000000     1.620000000
C    -4.006000000    -1.045000000     2.100000000
O    -4.886000000    -0.844000000     1.055000000
C    -4.334000000     0.031000000     0.084000000
C    -4.549000000    -0.471000000    -1.324000000
C    -4.551000000    -1.857000000    -1.462000000
H    -4.429000000    -2.512000000    -0.603000000
C    -4.420000000     0.364000000    -2.395000000
H    -4.314000000     1.444000000    -2.341000000
O    -4.741000000     1.393000000     0.159000000
H    -3.245000000    -0.047000000     0.216000000
C    -3.765000000    -0.084000000     3.064000000
C    -4.512000000     1.190000000     3.079000000
H    -4.575000000     1.489000000     4.127000000
H    -5.548000000     0.996000000     2.794000000
C    -3.878000000     2.299000000     2.260000000
C    -4.098000000     2.365000000     0.825000000
C    -3.374000000     3.206000000     0.047000000
H    -3.387000000     3.228000000    -1.039000000
C    -2.342000000     3.983000000     0.610000000
O    -1.541000000     4.634000000    -0.288000000
C    -0.249000000     4.050000000    -0.611000000
H    -0.333000000     2.975000000    -0.393000000
C    -0.005000000     4.084000000    -2.082000000
C     1.207000000     3.778000000    -2.565000000
H     1.978000000     3.559000000    -1.831000000
C    -1.011000000     4.368000000    -2.968000000
H    -2.052000000     4.560000000    -2.720000000
C    -0.782000000     4.437000000    -4.369000000
O    -1.811000000     4.698000000    -5.191000000
C     0.520000000     4.395000000    -4.793000000
H     0.767000000     4.521000000    -5.844000000
C     1.514000000     3.946000000    -3.905000000
O     2.788000000     3.649000000    -4.374000000
C     3.959000000     3.758000000    -3.646000000
C     4.771000000     2.640000000    -3.311000000
H     4.516000000     1.646000000    -3.669000000
C     4.338000000     4.971000000    -3.187000000
H     3.755000000     5.850000000    -3.451000000
C     5.466000000     5.108000000    -2.426000000
H     5.596000000     6.058000000    -1.913000000
C     6.242000000     4.047000000    -2.093000000
H     7.125000000     4.262000000    -1.497000000
C     5.876000000     2.803000000    -2.519000000
O     6.636000000     1.773000000    -2.084000000
C     6.258000000     0.784000000    -1.103000000
C     6.771000000    -0.502000000    -1.273000000
H     7.396000000    -0.724000000    -2.135000000
C     6.429000000    -1.394000000    -0.275000000
O     6.855000000    -2.678000000    -0.382000000
C     6.014000000    -3.737000000     0.017000000
C     4.789000000    -3.874000000    -0.685000000
H     4.564000000    -3.308000000    -1.585000000
C     6.396000000    -4.375000000     1.203000000
H     7.322000000    -4.007000000     1.639000000
C     5.454000000    -5.243000000     1.753000000
H     5.698000000    -5.707000000     2.705000000
C     4.238000000    -5.443000000     1.099000000
H     3.513000000    -6.168000000     1.461000000
C     3.930000000    -4.825000000    -0.105000000
O     2.855000000    -5.263000000    -0.815000000
C     1.556000000    -5.367000000    -0.185000000
C     0.545000000    -6.106000000    -0.782000000
H     0.569000000    -6.709000000    -1.687000000
C    -0.708000000    -6.158000000    -0.140000000
O    -1.646000000    -6.906000000    -0.825000000
C    -2.891000000    -6.379000000    -1.018000000
C    -3.018000000    -5.236000000    -1.804000000
H    -2.118000000    -4.744000000    -2.165000000
C    -4.010000000    -7.050000000    -0.533000000
H    -3.767000000    -7.974000000    -0.014000000
C    -5.294000000    -6.561000000    -0.782000000
H    -6.119000000    -7.188000000    -0.454000000
C    -5.415000000    -5.455000000    -1.612000000
H    -6.396000000    -5.103000000    -1.920000000
C    -4.279000000    -4.820000000    -2.127000000
O    -4.379000000    -3.790000000    -3.012000000
C    -4.474000000    -2.438000000    -2.699000000
C    -4.385000000    -1.581000000    -3.861000000
H    -4.201000000    -1.959000000    -4.863000000
C    -4.429000000    -0.188000000    -3.680000000
O    -4.193000000     0.552000000    -4.808000000
C    -4.132000000     1.898000000    -4.934000000
C    -5.370000000     2.571000000    -4.899000000
H    -6.326000000     2.055000000    -4.864000000
C    -5.383000000     4.025000000    -4.889000000
H    -6.247000000     4.683000000    -4.840000000
C    -4.112000000     4.621000000    -5.076000000
H    -4.219000000     5.697000000    -5.184000000
C    -2.951000000     3.946000000    -5.099000000
C    -2.973000000     2.609000000    -5.052000000
H    -2.021000000     2.084000000    -5.048000000
C     1.804000000    -0.237000000    -2.097000000
H     2.719000000    -0.618000000    -2.541000000
C     1.517000000    -0.299000000    -0.744000000
H     2.276000000    -0.711000000    -0.084000000
C     0.323000000     0.203000000    -0.209000000
H     0.091000000     0.157000000     0.874000000
C    -0.645000000     0.671000000    -1.078000000
H    -1.538000000     1.086000000    -0.619000000
C    -0.416000000     0.643000000    -2.451000000
H    -1.256000000     0.893000000    -3.095000000
C     0.892000000     0.346000000    -2.984000000
C     1.146000000     0.321000000    -4.430000000
O     0.229000000     0.133000000    -5.230000000
O     2.276000000     0.008000000    -4.830000000
O     4.432000000     5.657000000    -6.438000000
H     3.969000000     5.723000000    -5.603000000
H     3.774000000     5.329000000    -7.051000000
O    -1.082000000    -1.932000000    -5.895000000
H    -1.244000000    -1.655000000    -6.797000000
H    -0.694000000    -1.164000000    -5.475000000
O     3.052000000     3.916000000    -7.912000000
H     3.211000000     3.046000000    -7.546000000
H     2.428000000     3.766000000    -8.623000000
O     6.174000000     1.300000000    -6.589000000
H     6.492000000     1.101000000    -7.470000000
H     6.364000000     2.230000000    -6.471000000
O     4.827000000    -1.291000000    -7.347000000
H     3.960000000    -0.906000000    -7.224000000
H     5.306000000    -1.063000000    -6.551000000
O     4.117000000    -3.524000000    -4.325000000
H     3.223000000    -3.372000000    -4.633000000
H     4.538000000    -2.666000000    -4.378000000
O     1.022000000     3.036000000    -9.595000000
H     0.581000000     3.789000000    -9.988000000
H     0.694000000     2.283000000   -10.086000000
O     3.554000000     1.255000000    -6.792000000
H     3.178000000     0.934000000    -5.972000000
H     4.497000000     1.280000000    -6.629000000
O    -0.962000000     1.212000000    -7.356000000
H    -0.177000000     1.150000000    -7.901000000
H    -0.669000000     0.951000000    -6.483000000
O    -2.541000000    -4.500000000    -5.055000000
H    -1.875000000    -3.845000000    -5.265000000
H    -3.367000000    -4.096000000    -5.322000000
O    -2.188000000    -1.418000000    -9.185000000
H    -1.409000000    -1.540000000    -9.728000000
H    -2.750000000    -0.839000000    -9.700000000
O     1.520000000    -2.591000000    -4.976000000
H     0.599000000    -2.560000000    -5.235000000
H     1.712000000    -1.706000000    -4.667000000
O     0.364000000    -0.630000000   -10.030000000
H     0.404000000    -1.530000000   -10.355000000
H     0.808000000    -0.663000000    -9.182000000
O     1.540000000    -0.744000000    -7.513000000
H     1.182000000    -0.603000000    -6.636000000
H     2.310000000    -0.178000000    -7.551000000
O     5.886000000    -1.008000000    -4.786000000
H     6.809000000    -0.913000000    -4.552000000
H     5.533000000    -0.120000000    -4.735000000
O    -1.702000000     1.369000000   -10.580000000
H    -0.916000000     0.837000000   -10.702000000
H    -1.823000000     1.405000000    -9.631000000
O    -3.530000000     2.107000000    -8.653000000
H    -3.439000000     2.995000000    -8.308000000
H    -3.066000000     1.556000000    -8.023000000
O     3.271000000    -3.405000000    -8.283000000
H     3.990000000    -2.987000000    -7.809000000
H     2.548000000    -2.782000000    -8.218000000
O     1.223000000    -4.998000000    -6.295000000
H     1.166000000    -4.209000000    -5.757000000
H     1.866000000    -4.782000000    -6.970000000
