215
-1455.47640
C     5.185000000     0.585000000     2.079000000
H     5.176000000     0.125000000     3.064000000
C     4.214000000     1.555000000     1.747000000
C     4.360000000     2.153000000     0.530000000
H     3.681000000     2.948000000     0.232000000
C     3.055000000     1.821000000     2.647000000
O     3.236000000     1.202000000     3.858000000
H     2.189000000     1.404000000     2.111000000
O     2.829000000     3.248000000     2.715000000
C     1.512000000     3.730000000     2.629000000
C     1.084000000     4.291000000     1.432000000
H     1.748000000     4.528000000     0.605000000
C    -0.312000000     4.496000000     1.175000000
O    -0.577000000     4.881000000    -0.145000000
C    -1.253000000     4.222000000     2.185000000
C    -2.758000000     4.398000000     1.897000000
H    -3.171000000     4.628000000     2.882000000
C    -3.492000000     3.324000000     1.101000000
C    -4.129000000     2.353000000     1.895000000
H    -4.091000000     2.455000000     2.976000000
H    -2.793000000     5.262000000     1.231000000
C    -0.738000000     3.816000000     3.457000000
H    -1.480000000     3.596000000     4.220000000
C     0.589000000     3.449000000     3.657000000
C     0.902000000     2.712000000     4.962000000
H     0.208000000     2.948000000     5.772000000
H     1.927000000     2.954000000     5.248000000
C     0.820000000     1.177000000     4.695000000
C    -0.331000000     0.458000000     4.960000000
H    -1.207000000     0.976000000     5.342000000
C     2.045000000     0.576000000     4.266000000
C     1.917000000    -0.778000000     3.891000000
H     2.781000000    -1.317000000     3.512000000
C     0.733000000    -1.490000000     4.150000000
O     0.685000000    -2.796000000     3.783000000
C     0.120000000    -3.138000000     2.497000000
C     0.982000000    -4.125000000     1.750000000
C     0.311000000    -5.184000000     1.087000000
H    -0.759000000    -5.328000000     1.208000000
C     2.392000000    -3.980000000     1.554000000
H     2.922000000    -3.154000000     2.022000000
O    -1.264000000    -3.626000000     2.755000000
H     0.076000000    -2.192000000     1.937000000
C    -0.363000000    -0.926000000     4.715000000
C    -1.720000000    -1.702000000     4.888000000
H    -2.317000000    -1.076000000     5.554000000
H    -1.469000000    -2.631000000     5.405000000
C    -2.460000000    -1.755000000     3.532000000
C    -3.497000000    -0.778000000     3.360000000
H    -3.696000000    -0.076000000     4.165000000
C    -2.302000000    -2.767000000     2.610000000
C    -3.085000000    -2.891000000     1.472000000
H    -2.916000000    -3.710000000     0.777000000
C    -4.108000000    -1.975000000     1.341000000
O    -4.715000000    -1.960000000     0.106000000
C    -4.235000000    -1.043000000    -0.817000000
C    -4.069000000    -1.685000000    -2.187000000
C    -3.777000000    -3.071000000    -2.230000000
H    -3.849000000    -3.709000000    -1.353000000
C    -3.884000000    -0.907000000    -3.335000000
H    -4.052000000     0.167000000    -3.342000000
O    -5.166000000     0.088000000    -0.806000000
H    -3.260000000    -0.711000000    -0.429000000
C    -4.279000000    -0.907000000     2.189000000
C    -5.363000000     0.124000000     2.053000000
H    -5.548000000     0.568000000     3.033000000
H    -6.266000000    -0.367000000     1.685000000
C    -4.711000000     1.269000000     1.249000000
C    -4.617000000     1.167000000    -0.165000000
C    -3.936000000     2.178000000    -0.938000000
H    -3.754000000     2.082000000    -2.005000000
C    -3.338000000     3.209000000    -0.283000000
O    -2.501000000     4.073000000    -1.052000000
C    -1.083000000     3.929000000    -1.042000000
H    -0.851000000     2.891000000    -0.761000000
C    -0.499000000     4.097000000    -2.352000000
C     0.823000000     4.594000000    -2.558000000
H     1.499000000     4.857000000    -1.748000000
C    -1.196000000     3.694000000    -3.472000000
H    -2.122000000     3.163000000    -3.262000000
C    -0.756000000     3.931000000    -4.779000000
O    -1.447000000     3.525000000    -5.893000000
C     0.488000000     4.447000000    -4.926000000
H     0.873000000     4.666000000    -5.919000000
C     1.312000000     4.695000000    -3.843000000
O     2.551000000     5.182000000    -4.100000000
C     3.692000000     5.036000000    -3.294000000
C     4.189000000     3.732000000    -3.095000000
H     3.799000000     2.843000000    -3.583000000
C     4.106000000     6.094000000    -2.524000000
H     3.595000000     7.046000000    -2.642000000
C     5.066000000     5.901000000    -1.573000000
H     5.415000000     6.791000000    -1.055000000
C     5.697000000     4.692000000    -1.362000000
H     6.461000000     4.672000000    -0.588000000
C     5.136000000     3.588000000    -2.092000000
O     5.487000000     2.312000000    -1.674000000
C     5.333000000     1.741000000    -0.424000000
C     6.143000000     0.681000000    -0.079000000
H     6.922000000     0.401000000    -0.784000000
C     6.136000000     0.151000000     1.187000000
O     7.071000000    -0.813000000     1.622000000
C     6.684000000    -2.167000000     1.778000000
C     5.585000000    -2.728000000     1.103000000
H     4.901000000    -2.172000000     0.467000000
C     7.390000000    -2.935000000     2.688000000
H     8.241000000    -2.520000000     3.223000000
C     7.015000000    -4.225000000     2.895000000
H     7.573000000    -4.757000000     3.662000000
C     5.994000000    -4.900000000     2.183000000
H     5.719000000    -5.942000000     2.327000000
C     5.288000000    -4.114000000     1.278000000
O     4.378000000    -4.613000000     0.390000000
C     3.072000000    -4.880000000     0.704000000
C     2.339000000    -5.809000000     0.053000000
H     2.824000000    -6.466000000    -0.665000000
C     0.967000000    -5.901000000     0.185000000
O     0.263000000    -6.872000000    -0.458000000
C    -1.073000000    -6.735000000    -0.802000000
C    -1.402000000    -5.850000000    -1.800000000
H    -0.672000000    -5.190000000    -2.262000000
C    -2.052000000    -7.533000000    -0.260000000
H    -1.806000000    -8.323000000     0.445000000
C    -3.365000000    -7.461000000    -0.684000000
H    -4.133000000    -8.154000000    -0.350000000
C    -3.742000000    -6.591000000    -1.635000000
H    -4.769000000    -6.624000000    -1.989000000
C    -2.731000000    -5.788000000    -2.225000000
O    -3.087000000    -4.988000000    -3.337000000
C    -3.228000000    -3.637000000    -3.348000000
C    -3.151000000    -2.931000000    -4.503000000
H    -2.818000000    -3.408000000    -5.421000000
C    -3.381000000    -1.553000000    -4.522000000
O    -3.033000000    -0.851000000    -5.669000000
C    -3.290000000     0.480000000    -5.850000000
C    -4.603000000     0.851000000    -6.209000000
H    -5.457000000     0.179000000    -6.216000000
C    -4.845000000     2.221000000    -6.422000000
H    -5.813000000     2.561000000    -6.782000000
C    -3.796000000     3.116000000    -6.270000000
H    -3.876000000     4.142000000    -6.619000000
C    -2.496000000     2.637000000    -5.924000000
C    -2.268000000     1.343000000    -5.736000000
H    -1.213000000     1.112000000    -5.614000000
C     2.338000000    -0.463000000    -1.157000000
H     3.297000000    -0.974000000    -1.115000000
C     1.564000000    -0.190000000    -0.020000000
H     1.940000000    -0.426000000     0.972000000
C     0.241000000     0.303000000    -0.134000000
H    -0.366000000     0.514000000     0.698000000
C    -0.226000000     0.503000000    -1.435000000
H    -1.183000000     0.965000000    -1.663000000
C     0.512000000     0.255000000    -2.543000000
H     0.147000000     0.389000000    -3.558000000
C     1.841000000    -0.207000000    -2.452000000
C     2.688000000    -0.528000000    -3.661000000
O     2.368000000    -0.132000000    -4.765000000
O     3.667000000    -1.164000000    -3.561000000
O     0.504000000    -2.827000000    -2.832000000
H     0.147000000    -2.227000000    -2.178000000
H     0.171000000    -2.497000000    -3.667000000
O     6.172000000    -5.572000000    -3.618000000
H     6.097000000    -5.303000000    -4.533000000
H     6.203000000    -4.751000000    -3.127000000
O     5.560000000    -4.007000000    -6.145000000
H     4.664000000    -3.697000000    -6.276000000
H     6.103000000    -3.381000000    -6.624000000
O     4.602000000     3.496000000    -7.728000000
H     4.479000000     2.681000000    -7.241000000
H     5.456000000     3.820000000    -7.441000000
O     7.604000000     2.451000000    -4.136000000
H     7.208000000     1.697000000    -3.698000000
H     8.376000000     2.656000000    -3.609000000
O     4.699000000    -0.975000000    -8.218000000
H     4.578000000    -0.787000000    -9.149000000
H     3.983000000    -1.571000000    -7.999000000
O     2.856000000    -2.649000000    -6.284000000
H     1.964000000    -2.577000000    -6.622000000
H     2.868000000    -2.082000000    -5.513000000
O     5.807000000     0.302000000    -4.429000000
H     5.157000000    -0.232000000    -3.971000000
H     5.347000000     0.628000000    -5.202000000
O     0.722000000     0.324000000    -7.116000000
H     1.029000000     0.910000000    -7.808000000
H     1.358000000     0.434000000    -6.410000000
O     2.628000000    -4.622000000    -3.642000000
H     3.005000000    -4.171000000    -4.398000000
H     2.130000000    -3.946000000    -3.183000000
O     5.185000000    -2.849000000    -2.303000000
H     4.614000000    -2.327000000    -2.867000000
H     4.638000000    -3.582000000    -2.021000000
O     2.003000000     2.148000000    -8.880000000
H     2.566000000     2.590000000    -8.245000000
H     2.557000000     2.034000000    -9.653000000
O     3.734000000     1.080000000    -6.504000000
H     3.080000000     0.733000000    -5.898000000
H     3.989000000     0.328000000    -7.038000000
O     7.092000000    -1.301000000    -6.957000000
H     6.325000000    -1.357000000    -7.527000000
H     6.884000000    -0.594000000    -6.346000000
O     0.412000000    -5.445000000    -6.718000000
H    -0.451000000    -5.831000000    -6.569000000
H     0.229000000    -4.542000000    -6.979000000
O    -1.295000000    -0.612000000    -8.494000000
H    -1.635000000     0.106000000    -9.027000000
H    -0.753000000    -0.183000000    -7.832000000
O     0.383000000    -2.938000000    -8.206000000
H     1.050000000    -3.034000000    -8.885000000
H    -0.267000000    -2.349000000    -8.590000000
O    -0.364000000    -1.849000000    -5.207000000
H     0.185000000    -1.205000000    -5.656000000
H    -1.162000000    -1.893000000    -5.734000000
O     7.485000000    -2.130000000    -3.366000000
H     7.247000000    -1.341000000    -3.852000000
H     6.668000000    -2.417000000    -2.958000000
