215
-1445.74765
C     5.449000000    -0.565000000     0.755000000
H     5.261000000    -1.316000000     1.518000000
C     4.771000000     0.665000000     0.776000000
C     4.792000000     1.447000000    -0.395000000
H     4.140000000     2.311000000    -0.289000000
C     3.802000000     0.987000000     1.940000000
O     3.947000000     0.101000000     3.084000000
H     2.767000000     0.889000000     1.581000000
O     3.885000000     2.327000000     2.397000000
C     2.709000000     3.030000000     2.615000000
C     2.189000000     3.903000000     1.575000000
H     2.782000000     4.035000000     0.674000000
C     0.871000000     4.346000000     1.581000000
O     0.415000000     4.929000000     0.464000000
C     0.103000000     4.110000000     2.724000000
C    -1.336000000     4.677000000     2.740000000
H    -1.633000000     4.711000000     3.790000000
C    -2.391000000     3.783000000     2.097000000
C    -3.125000000     2.826000000     2.885000000
H    -2.808000000     2.799000000     3.924000000
H    -1.286000000     5.692000000     2.340000000
C     0.623000000     3.393000000     3.775000000
H    -0.047000000     3.213000000     4.612000000
C     1.910000000     2.844000000     3.763000000
C     2.398000000     1.839000000     4.856000000
H     1.891000000     2.074000000     5.794000000
H     3.433000000     2.083000000     5.105000000
C     2.082000000     0.366000000     4.548000000
C     0.911000000    -0.197000000     5.122000000
H     0.305000000     0.462000000     5.737000000
C     2.822000000    -0.427000000     3.617000000
C     2.511000000    -1.749000000     3.410000000
H     3.140000000    -2.322000000     2.733000000
C     1.261000000    -2.248000000     3.871000000
O     0.899000000    -3.483000000     3.436000000
C    -0.049000000    -3.403000000     2.362000000
C     0.227000000    -4.399000000     1.224000000
C    -0.757000000    -5.261000000     0.668000000
H    -1.702000000    -5.318000000     1.202000000
C     1.465000000    -4.374000000     0.632000000
H     2.192000000    -3.652000000     0.995000000
O    -1.367000000    -3.649000000     2.897000000
H     0.046000000    -2.382000000     1.965000000
C     0.449000000    -1.398000000     4.715000000
C    -0.948000000    -1.853000000     5.281000000
H    -1.139000000    -1.187000000     6.125000000
H    -0.928000000    -2.853000000     5.719000000
C    -2.081000000    -1.694000000     4.229000000
C    -2.903000000    -0.500000000     4.226000000
H    -2.704000000     0.301000000     4.934000000
C    -2.183000000    -2.596000000     3.173000000
C    -3.156000000    -2.427000000     2.197000000
H    -3.279000000    -3.117000000     1.365000000
C    -3.988000000    -1.300000000     2.173000000
O    -4.832000000    -1.175000000     1.095000000
C    -4.372000000    -0.323000000    -0.004000000
C    -4.604000000    -0.882000000    -1.394000000
C    -4.543000000    -2.293000000    -1.604000000
H    -4.346000000    -3.087000000    -0.889000000
C    -4.835000000    -0.017000000    -2.507000000
H    -5.016000000     1.044000000    -2.356000000
O    -4.875000000     0.980000000     0.162000000
H    -3.272000000    -0.311000000     0.012000000
C    -3.883000000    -0.353000000     3.162000000
C    -4.778000000     0.892000000     3.035000000
H    -4.951000000     1.257000000     4.049000000
H    -5.722000000     0.587000000     2.578000000
C    -4.027000000     1.989000000     2.217000000
C    -4.137000000     1.922000000     0.844000000
C    -3.346000000     2.803000000     0.090000000
H    -3.398000000     2.679000000    -0.989000000
C    -2.463000000     3.674000000     0.662000000
O    -1.811000000     4.492000000    -0.164000000
C    -0.479000000     4.087000000    -0.347000000
H    -0.363000000     3.057000000     0.022000000
C    -0.021000000     4.106000000    -1.769000000
C     1.207000000     4.710000000    -2.069000000
H     1.934000000     5.145000000    -1.389000000
C    -0.806000000     3.506000000    -2.739000000
H    -1.794000000     3.128000000    -2.490000000
C    -0.367000000     3.527000000    -4.088000000
O    -1.117000000     2.889000000    -5.063000000
C     0.825000000     4.190000000    -4.454000000
H     1.156000000     4.227000000    -5.489000000
C     1.640000000     4.735000000    -3.437000000
O     2.726000000     5.366000000    -3.862000000
C     3.965000000     4.936000000    -3.488000000
C     4.215000000     3.621000000    -3.366000000
H     3.483000000     2.942000000    -3.797000000
C     4.898000000     5.872000000    -3.106000000
H     4.694000000     6.939000000    -3.143000000
C     6.131000000     5.430000000    -2.585000000
H     6.924000000     6.101000000    -2.264000000
C     6.451000000     4.087000000    -2.542000000
H     7.421000000     3.748000000    -2.186000000
C     5.412000000     3.161000000    -2.819000000
O     5.627000000     1.839000000    -2.639000000
C     5.571000000     1.045000000    -1.537000000
C     6.243000000    -0.136000000    -1.489000000
H     6.801000000    -0.423000000    -2.377000000
C     6.105000000    -0.952000000    -0.374000000
O     6.749000000    -2.151000000    -0.399000000
C     6.059000000    -3.328000000    -0.069000000
C     4.880000000    -3.615000000    -0.697000000
H     4.414000000    -2.948000000    -1.418000000
C     6.570000000    -4.203000000     0.864000000
H     7.494000000    -3.942000000     1.374000000
C     5.940000000    -5.408000000     1.163000000
H     6.428000000    -6.084000000     1.861000000
C     4.715000000    -5.738000000     0.498000000
H     4.182000000    -6.656000000     0.732000000
C     4.111000000    -4.765000000    -0.381000000
O     2.974000000    -5.100000000    -1.099000000
C     1.693000000    -5.092000000    -0.570000000
C     0.685000000    -5.931000000    -1.096000000
H     0.929000000    -6.411000000    -2.040000000
C    -0.565000000    -5.944000000    -0.525000000
O    -1.551000000    -6.834000000    -0.938000000
C    -2.816000000    -6.445000000    -0.997000000
C    -3.136000000    -5.455000000    -1.979000000
H    -2.345000000    -5.023000000    -2.587000000
C    -3.761000000    -6.738000000    -0.039000000
H    -3.491000000    -7.339000000     0.825000000
C    -5.071000000    -6.248000000    -0.204000000
H    -5.850000000    -6.628000000     0.452000000
C    -5.393000000    -5.500000000    -1.321000000
H    -6.440000000    -5.211000000    -1.338000000
C    -4.423000000    -5.065000000    -2.233000000
O    -4.710000000    -4.162000000    -3.217000000
C    -4.771000000    -2.782000000    -2.895000000
C    -4.818000000    -1.914000000    -4.016000000
H    -4.812000000    -2.210000000    -5.062000000
C    -4.780000000    -0.523000000    -3.821000000
O    -5.016000000     0.283000000    -4.881000000
C    -4.433000000     1.579000000    -4.992000000
C    -5.259000000     2.641000000    -5.326000000
H    -6.322000000     2.585000000    -5.550000000
C    -4.624000000     3.909000000    -5.502000000
H    -5.227000000     4.790000000    -5.708000000
C    -3.231000000     4.026000000    -5.243000000
H    -2.803000000     4.983000000    -5.532000000
C    -2.469000000     2.904000000    -5.044000000
C    -3.039000000     1.709000000    -4.795000000
H    -2.516000000     0.776000000    -4.601000000
C     1.725000000    -1.099000000    -1.712000000
H     2.713000000    -1.544000000    -1.803000000
C     1.137000000    -0.779000000    -0.481000000
H     1.756000000    -0.927000000     0.399000000
C    -0.076000000    -0.033000000    -0.420000000
H    -0.341000000     0.277000000     0.555000000
C    -0.808000000     0.255000000    -1.560000000
H    -1.714000000     0.856000000    -1.559000000
C    -0.297000000    -0.133000000    -2.796000000
H    -0.775000000     0.168000000    -3.725000000
C     1.010000000    -0.686000000    -2.853000000
C     1.627000000    -1.022000000    -4.185000000
O     0.845000000    -1.087000000    -5.126000000
O     2.781000000    -1.305000000    -4.292000000
O    -0.978000000    -3.993000000    -4.349000000
H    -1.416000000    -3.154000000    -4.491000000
H    -0.104000000    -3.872000000    -4.721000000
O     3.611000000     3.584000000    -6.782000000
H     4.311000000     3.082000000    -6.364000000
H     3.510000000     3.180000000    -7.644000000
O     2.396000000    -7.570000000    -4.549000000
H     1.449000000    -7.662000000    -4.648000000
H     2.574000000    -6.658000000    -4.780000000
O     4.495000000    -0.146000000    -8.836000000
H     5.063000000     0.160000000    -8.129000000
H     4.002000000     0.631000000    -9.099000000
O     4.032000000    -2.361000000    -6.770000000
H     3.917000000    -1.521000000    -7.215000000
H     3.611000000    -2.241000000    -5.919000000
O     6.941000000    -3.183000000    -6.450000000
H     6.112000000    -2.783000000    -6.712000000
H     6.751000000    -3.599000000    -5.609000000
O     4.510000000     1.245000000    -5.448000000
H     4.145000000     0.511000000    -4.954000000
H     5.379000000     1.380000000    -5.069000000
O    -1.099000000     0.048000000    -6.516000000
H    -0.906000000     0.971000000    -6.352000000
H    -0.305000000    -0.414000000    -6.246000000
O    -2.132000000    -5.901000000    -5.991000000
H    -1.754000000    -5.162000000    -5.514000000
H    -2.692000000    -5.496000000    -6.654000000
O    -1.577000000    -2.661000000    -8.940000000
H    -0.676000000    -2.958000000    -9.067000000
H    -1.566000000    -2.219000000    -8.092000000
O     4.080000000    -3.577000000    -3.898000000
H     3.306000000    -4.068000000    -4.174000000
H     3.822000000    -2.658000000    -3.977000000
O     1.013000000     1.480000000    -9.147000000
H     0.908000000     0.791000000    -9.803000000
H     1.255000000     1.014000000    -8.347000000
O     2.127000000     0.495000000    -6.729000000
H     1.803000000    -0.119000000    -6.070000000
H     2.861000000     0.938000000    -6.303000000
O     1.132000000    -3.323000000    -9.232000000
H     1.278000000    -4.268000000    -9.187000000
H     1.935000000    -2.975000000    -9.619000000
O     4.271000000    -5.021000000    -7.577000000
H     4.200000000    -4.069000000    -7.641000000
H     4.676000000    -5.288000000    -8.402000000
O    -3.585000000     0.479000000    -7.629000000
H    -3.669000000     1.340000000    -7.219000000
H    -2.723000000     0.167000000    -7.354000000
O     0.596000000    -3.264000000    -6.330000000
H     0.523000000    -3.109000000    -7.272000000
H     0.795000000    -2.404000000    -5.960000000
O     5.780000000    -5.637000000    -2.579000000
H     5.386000000    -4.948000000    -3.113000000
H     5.084000000    -5.904000000    -1.979000000
O     2.465000000    -4.956000000    -5.570000000
H     1.765000000    -4.373000000    -5.861000000
H     2.976000000    -5.131000000    -6.361000000
