215
-1436.32103
C     4.213000000    -2.517000000     1.422000000
H     3.615000000    -3.243000000     1.967000000
C     4.038000000    -1.156000000     1.722000000
C     4.818000000    -0.243000000     0.978000000
H     4.799000000     0.825000000     1.182000000
C     2.996000000    -0.701000000     2.794000000
O     2.583000000    -1.691000000     3.725000000
H     2.148000000    -0.337000000     2.195000000
O     3.385000000     0.590000000     3.448000000
C     2.528000000     1.584000000     3.467000000
C     2.574000000     2.505000000     2.454000000
H     3.484000000     2.663000000     1.881000000
C     1.637000000     3.504000000     2.408000000
O     1.643000000     4.428000000     1.387000000
C     0.506000000     3.425000000     3.253000000
C    -0.606000000     4.458000000     3.217000000
H    -1.134000000     4.578000000     4.165000000
C    -1.634000000     4.089000000     2.138000000
C    -2.714000000     3.319000000     2.531000000
H    -2.908000000     3.132000000     3.584000000
H    -0.149000000     5.430000000     3.019000000
C     0.481000000     2.507000000     4.291000000
H    -0.433000000     2.461000000     4.877000000
C     1.404000000     1.509000000     4.397000000
C     1.226000000     0.351000000     5.344000000
H     0.644000000     0.733000000     6.185000000
H     2.080000000    -0.123000000     5.832000000
C     0.561000000    -0.787000000     4.641000000
C    -0.841000000    -0.895000000     4.723000000
H    -1.392000000    -0.030000000     5.084000000
C     1.245000000    -1.826000000     3.987000000
C     0.615000000    -2.938000000     3.454000000
H     1.205000000    -3.700000000     2.950000000
C    -0.698000000    -3.081000000     3.605000000
O    -1.309000000    -4.101000000     2.963000000
C    -1.722000000    -3.755000000     1.617000000
C    -1.291000000    -4.704000000     0.582000000
C    -1.965000000    -4.666000000    -0.639000000
H    -2.826000000    -4.020000000    -0.788000000
C    -0.174000000    -5.570000000     0.677000000
H     0.385000000    -5.628000000     1.608000000
O    -3.154000000    -3.663000000     1.707000000
H    -1.241000000    -2.781000000     1.442000000
C    -1.490000000    -2.070000000     4.138000000
C    -2.939000000    -2.259000000     4.313000000
H    -3.313000000    -1.852000000     5.254000000
H    -3.132000000    -3.329000000     4.412000000
C    -3.554000000    -1.655000000     3.007000000
C    -3.951000000    -0.319000000     3.090000000
H    -3.901000000     0.146000000     4.072000000
C    -3.642000000    -2.385000000     1.831000000
C    -4.043000000    -1.707000000     0.689000000
H    -4.040000000    -2.319000000    -0.209000000
C    -4.409000000    -0.371000000     0.738000000
O    -4.869000000     0.269000000    -0.443000000
C    -3.948000000     1.139000000    -1.159000000
C    -3.943000000     0.913000000    -2.660000000
C    -4.502000000    -0.330000000    -3.163000000
H    -5.135000000    -0.954000000    -2.537000000
C    -3.318000000     1.802000000    -3.501000000
H    -2.818000000     2.707000000    -3.165000000
O    -4.190000000     2.594000000    -0.803000000
H    -2.939000000     0.874000000    -0.811000000
C    -4.393000000     0.358000000     1.980000000
C    -4.776000000     1.838000000     2.022000000
H    -4.989000000     2.258000000     3.008000000
H    -5.604000000     2.067000000     1.348000000
C    -3.624000000     2.778000000     1.577000000
C    -3.458000000     3.145000000     0.223000000
C    -2.436000000     3.912000000    -0.189000000
H    -2.306000000     4.061000000    -1.258000000
C    -1.493000000     4.429000000     0.758000000
O    -0.314000000     5.064000000     0.233000000
C     0.867000000     4.222000000     0.130000000
H     0.582000000     3.184000000    -0.096000000
C     1.736000000     4.833000000    -1.027000000
C     3.123000000     4.811000000    -0.985000000
H     3.606000000     4.702000000    -0.017000000
C     1.103000000     5.042000000    -2.272000000
H     0.018000000     5.088000000    -2.334000000
C     1.840000000     5.081000000    -3.420000000
O     1.215000000     5.296000000    -4.632000000
C     3.145000000     4.998000000    -3.372000000
H     3.771000000     5.040000000    -4.260000000
C     3.841000000     4.871000000    -2.162000000
O     5.205000000     4.764000000    -2.226000000
C     5.878000000     3.906000000    -1.291000000
C     5.847000000     2.511000000    -1.503000000
H     5.235000000     2.083000000    -2.293000000
C     6.572000000     4.438000000    -0.233000000
H     6.707000000     5.508000000    -0.091000000
C     7.092000000     3.531000000     0.708000000
H     7.777000000     3.973000000     1.427000000
C     7.080000000     2.143000000     0.504000000
H     7.747000000     1.482000000     1.052000000
C     6.446000000     1.627000000    -0.673000000
O     6.338000000     0.272000000    -0.901000000
C     5.693000000    -0.634000000    -0.024000000
C     5.799000000    -1.971000000    -0.301000000
H     6.496000000    -2.257000000    -1.085000000
C     5.072000000    -2.896000000     0.427000000
O     5.148000000    -4.232000000     0.024000000
C     4.440000000    -5.269000000     0.599000000
C     3.252000000    -5.571000000    -0.074000000
H     3.060000000    -5.092000000    -1.031000000
C     4.721000000    -5.898000000     1.855000000
H     5.568000000    -5.460000000     2.376000000
C     3.922000000    -6.995000000     2.322000000
H     4.171000000    -7.609000000     3.184000000
C     2.772000000    -7.390000000     1.525000000
H     2.246000000    -8.289000000     1.836000000
C     2.478000000    -6.631000000     0.374000000
O     1.401000000    -6.999000000    -0.414000000
C     0.266000000    -6.281000000    -0.465000000
C    -0.458000000    -6.259000000    -1.651000000
H    -0.170000000    -6.906000000    -2.476000000
C    -1.608000000    -5.471000000    -1.725000000
O    -2.161000000    -5.367000000    -2.965000000
C    -3.404000000    -4.780000000    -3.235000000
C    -3.447000000    -3.588000000    -3.962000000
H    -2.522000000    -3.257000000    -4.427000000
C    -4.642000000    -5.371000000    -2.761000000
H    -4.646000000    -6.345000000    -2.277000000
C    -5.801000000    -4.683000000    -2.978000000
H    -6.728000000    -5.047000000    -2.540000000
C    -5.834000000    -3.544000000    -3.768000000
H    -6.772000000    -3.065000000    -4.037000000
C    -4.672000000    -3.000000000    -4.299000000
O    -4.712000000    -1.797000000    -5.035000000
C    -4.296000000    -0.637000000    -4.493000000
C    -3.563000000     0.206000000    -5.305000000
H    -3.305000000    -0.116000000    -6.311000000
C    -3.155000000     1.464000000    -4.843000000
O    -2.346000000     2.270000000    -5.598000000
C    -1.912000000     3.583000000    -5.335000000
C    -2.811000000     4.640000000    -5.254000000
H    -3.845000000     4.479000000    -5.548000000
C    -2.382000000     5.926000000    -4.974000000
H    -3.150000000     6.684000000    -4.844000000
C    -0.989000000     6.195000000    -4.868000000
H    -0.626000000     7.173000000    -4.565000000
C    -0.105000000     5.101000000    -4.884000000
C    -0.552000000     3.823000000    -5.161000000
H     0.141000000     2.991000000    -5.258000000
C     2.143000000    -0.327000000    -1.526000000
H     3.157000000    -0.033000000    -1.782000000
C     1.482000000     0.165000000    -0.424000000
H     1.971000000     0.886000000     0.226000000
C     0.159000000    -0.247000000    -0.167000000
H    -0.357000000     0.073000000     0.686000000
C    -0.422000000    -1.308000000    -0.942000000
H    -1.369000000    -1.772000000    -0.678000000
C     0.296000000    -1.798000000    -2.031000000
H    -0.194000000    -2.613000000    -2.557000000
C     1.572000000    -1.291000000    -2.408000000
C     2.344000000    -1.924000000    -3.607000000
O     1.749000000    -2.853000000    -4.068000000
O     3.427000000    -1.467000000    -4.025000000
O     2.712000000     0.000000000    -9.423000000
H     2.988000000     0.513000000   -10.183000000
H     3.449000000    -0.586000000    -9.250000000
O     3.921000000    -3.285000000    -5.952000000
H     3.230000000    -3.940000000    -6.051000000
H     3.582000000    -2.677000000    -5.295000000
O     7.800000000    -2.371000000    -6.547000000
H     7.246000000    -2.441000000    -5.769000000
H     8.657000000    -2.111000000    -6.209000000
O     6.607000000    -5.044000000    -7.113000000
H     7.029000000    -4.416000000    -7.699000000
H     5.902000000    -4.548000000    -6.697000000
O     7.523000000    -5.718000000    -2.213000000
H     6.703000000    -5.388000000    -2.580000000
H     8.201000000    -5.373000000    -2.793000000
O    -1.357000000    -5.272000000    -6.512000000
H    -2.285000000    -5.183000000    -6.727000000
H    -1.156000000    -4.495000000    -5.990000000
O     6.197000000    -1.817000000    -3.831000000
H     5.253000000    -1.713000000    -3.713000000
H     6.550000000    -0.934000000    -3.722000000
O     0.720000000     0.211000000    -7.386000000
H     1.257000000     0.209000000    -8.178000000
H     1.094000000     0.906000000    -6.844000000
O     4.773000000    -7.673000000    -3.073000000
H     5.473000000    -7.343000000    -3.636000000
H     4.015000000    -7.130000000    -3.289000000
O     2.797000000    -5.351000000    -3.751000000
H     2.214000000    -4.592000000    -3.756000000
H     2.444000000    -5.928000000    -4.429000000
O    -0.262000000    -2.880000000    -5.849000000
H     0.540000000    -2.924000000    -5.329000000
H    -0.620000000    -2.012000000    -5.664000000
O     5.166000000     2.465000000    -7.881000000
H     5.362000000     1.627000000    -7.462000000
H     5.116000000     3.089000000    -7.157000000
O     4.070000000     0.435000000    -5.798000000
H     3.858000000    -0.177000000    -5.094000000
H     4.631000000    -0.065000000    -6.390000000
O     7.037000000     0.686000000    -3.949000000
H     6.620000000     1.489000000    -4.265000000
H     7.781000000     0.991000000    -3.430000000
O     3.218000000    -4.671000000    -9.406000000
H     2.500000000    -4.137000000    -9.068000000
H     2.978000000    -4.848000000   -10.316000000
O     5.352000000    -4.561000000    -3.282000000
H     4.396000000    -4.528000000    -3.323000000
H     5.636000000    -3.708000000    -3.610000000
O     0.946000000    -3.018000000    -8.458000000
H     0.566000000    -2.868000000    -7.592000000
H     1.102000000    -2.139000000    -8.806000000
O     2.235000000     2.694000000    -6.398000000
H     2.871000000     2.077000000    -6.036000000
H     2.556000000     3.554000000    -6.127000000
O     8.807000000    -2.328000000    -2.603000000
H     8.589000000    -1.927000000    -1.761000000
H     7.963000000    -2.434000000    -3.043000000
