215
-1444.37098
C     4.542000000    -2.259000000     1.446000000
H     3.771000000    -2.951000000     1.777000000
C     4.507000000    -0.902000000     1.827000000
C     5.324000000    -0.039000000     1.139000000
H     5.303000000     1.025000000     1.360000000
C     3.421000000    -0.382000000     2.816000000
O     3.138000000    -1.280000000     3.945000000
H     2.566000000    -0.388000000     2.124000000
O     3.640000000     1.021000000     3.267000000
C     2.604000000     1.949000000     3.283000000
C     2.723000000     3.001000000     2.328000000
H     3.613000000     3.055000000     1.706000000
C     1.629000000     3.930000000     2.191000000
O     1.663000000     4.772000000     1.092000000
C     0.560000000     3.812000000     3.136000000
C    -0.621000000     4.676000000     3.051000000
H    -0.975000000     4.836000000     4.072000000
C    -1.648000000     4.158000000     2.023000000
C    -2.718000000     3.333000000     2.462000000
H    -2.786000000     3.157000000     3.533000000
H    -0.166000000     5.616000000     2.731000000
C     0.646000000     2.826000000     4.120000000
H    -0.142000000     2.678000000     4.854000000
C     1.638000000     1.826000000     4.178000000
C     1.641000000     0.791000000     5.258000000
H     1.044000000     1.223000000     6.064000000
H     2.600000000     0.481000000     5.680000000
C     1.019000000    -0.549000000     4.866000000
C    -0.312000000    -0.716000000     5.170000000
H    -0.898000000     0.061000000     5.655000000
C     1.777000000    -1.561000000     4.211000000
C     1.160000000    -2.672000000     3.644000000
H     1.757000000    -3.384000000     3.080000000
C    -0.221000000    -2.737000000     3.746000000
O    -0.794000000    -3.781000000     3.094000000
C    -1.487000000    -3.537000000     1.812000000
C    -1.191000000    -4.631000000     0.738000000
C    -1.933000000    -4.816000000    -0.413000000
H    -2.890000000    -4.300000000    -0.430000000
C     0.025000000    -5.275000000     0.845000000
H     0.770000000    -5.111000000     1.620000000
O    -2.839000000    -3.294000000     2.099000000
H    -1.047000000    -2.608000000     1.420000000
C    -0.932000000    -1.797000000     4.561000000
C    -2.412000000    -1.930000000     4.546000000
H    -2.722000000    -1.413000000     5.456000000
H    -2.730000000    -2.970000000     4.645000000
C    -3.101000000    -1.262000000     3.362000000
C    -3.729000000    -0.041000000     3.407000000
H    -3.548000000     0.499000000     4.333000000
C    -3.270000000    -2.009000000     2.164000000
C    -3.929000000    -1.561000000     1.060000000
H    -4.031000000    -2.234000000     0.212000000
C    -4.461000000    -0.297000000     1.065000000
O    -4.907000000     0.237000000    -0.163000000
C    -3.998000000     1.036000000    -0.976000000
C    -4.034000000     0.648000000    -2.415000000
C    -4.417000000    -0.628000000    -2.711000000
H    -4.653000000    -1.361000000    -1.943000000
C    -3.358000000     1.440000000    -3.352000000
H    -2.834000000     2.335000000    -3.029000000
O    -4.233000000     2.451000000    -0.767000000
H    -2.947000000     0.900000000    -0.680000000
C    -4.364000000     0.497000000     2.211000000
C    -4.760000000     1.910000000     2.103000000
H    -5.021000000     2.298000000     3.090000000
H    -5.720000000     2.032000000     1.598000000
C    -3.628000000     2.754000000     1.550000000
C    -3.536000000     3.135000000     0.190000000
C    -2.523000000     3.970000000    -0.235000000
H    -2.451000000     4.102000000    -1.312000000
C    -1.642000000     4.541000000     0.729000000
O    -0.579000000     5.293000000     0.226000000
C     0.653000000     4.484000000     0.017000000
H     0.453000000     3.407000000     0.112000000
C     1.277000000     4.634000000    -1.364000000
C     2.558000000     4.175000000    -1.602000000
H     3.085000000     3.791000000    -0.732000000
C     0.518000000     5.079000000    -2.455000000
H    -0.506000000     5.397000000    -2.271000000
C     1.073000000     5.140000000    -3.767000000
O     0.341000000     5.583000000    -4.815000000
C     2.373000000     4.749000000    -3.907000000
H     2.802000000     4.816000000    -4.904000000
C     3.099000000     4.187000000    -2.879000000
O     4.342000000     3.603000000    -3.108000000
C     5.340000000     3.413000000    -2.193000000
C     5.773000000     2.091000000    -2.080000000
H     5.372000000     1.353000000    -2.769000000
C     5.694000000     4.349000000    -1.333000000
H     5.321000000     5.348000000    -1.542000000
C     6.654000000     4.036000000    -0.416000000
H     6.956000000     4.843000000     0.246000000
C     7.071000000     2.705000000    -0.195000000
H     7.781000000     2.409000000     0.573000000
C     6.569000000     1.697000000    -1.035000000
O     6.853000000     0.351000000    -0.754000000
C     6.119000000    -0.476000000     0.086000000
C     6.103000000    -1.806000000    -0.276000000
H     6.670000000    -2.214000000    -1.109000000
C     5.323000000    -2.708000000     0.356000000
O     5.276000000    -4.011000000    -0.122000000
C     4.474000000    -4.995000000     0.486000000
C     3.229000000    -5.375000000     0.059000000
H     2.804000000    -4.760000000    -0.730000000
C     5.132000000    -5.679000000     1.511000000
H     6.129000000    -5.400000000     1.841000000
C     4.539000000    -6.786000000     2.112000000
H     5.037000000    -7.334000000     2.908000000
C     3.297000000    -7.263000000     1.602000000
H     2.881000000    -8.182000000     2.007000000
C     2.688000000    -6.542000000     0.558000000
O     1.533000000    -7.004000000     0.070000000
C     0.369000000    -6.241000000    -0.067000000
C    -0.378000000    -6.555000000    -1.182000000
H     0.035000000    -7.232000000    -1.925000000
C    -1.604000000    -5.849000000    -1.333000000
O    -2.399000000    -6.046000000    -2.449000000
C    -3.528000000    -5.233000000    -2.639000000
C    -3.534000000    -4.167000000    -3.497000000
H    -2.582000000    -3.809000000    -3.880000000
C    -4.784000000    -5.689000000    -2.157000000
H    -4.720000000    -6.670000000    -1.693000000
C    -5.979000000    -5.076000000    -2.470000000
H    -6.884000000    -5.560000000    -2.113000000
C    -5.937000000    -3.891000000    -3.256000000
H    -6.821000000    -3.368000000    -3.613000000
C    -4.701000000    -3.420000000    -3.728000000
O    -4.628000000    -2.306000000    -4.540000000
C    -4.259000000    -1.072000000    -4.055000000
C    -3.653000000    -0.244000000    -5.014000000
H    -3.507000000    -0.574000000    -6.039000000
C    -3.200000000     0.985000000    -4.673000000
O    -2.316000000     1.710000000    -5.567000000
C    -2.228000000     3.061000000    -5.480000000
C    -3.380000000     3.820000000    -5.578000000
H    -4.346000000     3.330000000    -5.674000000
C    -3.312000000     5.213000000    -5.548000000
H    -4.214000000     5.789000000    -5.735000000
C    -2.025000000     5.812000000    -5.325000000
H    -1.947000000     6.893000000    -5.411000000
C    -0.884000000     5.011000000    -5.091000000
C    -1.030000000     3.653000000    -5.123000000
H    -0.232000000     2.956000000    -4.882000000
C     2.484000000     0.063000000    -1.031000000
H     3.297000000     0.730000000    -1.307000000
C     1.520000000     0.529000000    -0.156000000
H     1.728000000     1.497000000     0.294000000
C     0.321000000    -0.083000000     0.008000000
H    -0.430000000     0.347000000     0.527000000
C     0.141000000    -1.354000000    -0.550000000
H    -0.751000000    -1.950000000    -0.371000000
C     1.067000000    -1.859000000    -1.437000000
H     0.869000000    -2.829000000    -1.887000000
C     2.291000000    -1.176000000    -1.767000000
C     3.337000000    -1.652000000    -2.718000000
O     3.041000000    -2.634000000    -3.428000000
O     4.307000000    -1.018000000    -3.030000000
O     3.315000000    -3.148000000    -6.202000000
H     3.043000000    -3.223000000    -5.287000000
H     4.265000000    -3.037000000    -6.161000000
O     6.614000000     2.926000000    -5.290000000
H     5.950000000     3.184000000    -4.651000000
H     6.451000000     3.490000000    -6.046000000
O     5.789000000    -6.208000000    -5.575000000
H     6.259000000    -5.488000000    -5.996000000
H     5.323000000    -5.797000000    -4.847000000
O     7.780000000    -5.358000000    -2.674000000
H     7.007000000    -5.281000000    -3.234000000
H     7.715000000    -4.618000000    -2.071000000
O    -0.862000000    -4.143000000    -6.001000000
H    -1.802000000    -3.996000000    -5.896000000
H    -0.463000000    -3.295000000    -5.802000000
O     6.678000000    -1.797000000    -3.629000000
H     5.861000000    -1.549000000    -3.197000000
H     6.980000000    -0.991000000    -4.049000000
O     2.533000000    -2.257000000    -9.200000000
H     2.925000000    -1.401000000    -9.373000000
H     3.016000000    -2.593000000    -8.445000000
O     3.633000000    -7.047000000    -3.725000000
H     3.250000000    -6.221000000    -3.428000000
H     3.116000000    -7.287000000    -4.494000000
O     1.691000000    -4.833000000    -3.370000000
H     2.159000000    -3.998000000    -3.361000000
H     1.188000000    -4.816000000    -4.184000000
O     4.234000000     1.776000000    -7.754000000
H     4.463000000     1.145000000    -8.437000000
H     4.610000000     1.410000000    -6.954000000
O     0.605000000    -1.802000000    -4.557000000
H     1.412000000    -1.998000000    -4.083000000
H     0.579000000    -0.846000000    -4.601000000
O     4.402000000    -0.159000000    -5.421000000
H     4.251000000    -0.295000000    -4.485000000
H     4.869000000    -0.944000000    -5.705000000
O     8.008000000     0.215000000    -4.665000000
H     7.640000000     1.062000000    -4.913000000
H     8.399000000     0.366000000    -3.804000000
O     5.315000000    -4.061000000    -3.837000000
H     5.819000000    -3.344000000    -4.222000000
H     4.479000000    -3.663000000    -3.593000000
O     2.266000000    -5.192000000    -7.498000000
H     1.411000000    -4.874000000    -7.788000000
H     2.610000000    -4.486000000    -6.950000000
O     5.878000000    -2.374000000    -6.494000000
H     6.554000000    -3.048000000    -6.558000000
H     6.063000000    -1.779000000    -7.221000000
O     0.482000000     0.418000000    -8.099000000
H     1.140000000     0.335000000    -8.789000000
H     0.891000000     0.987000000    -7.446000000
O     1.923000000     1.782000000    -6.150000000
H     2.206000000     1.015000000    -5.652000000
H     2.684000000     2.017000000    -6.682000000
O     8.877000000    -2.387000000    -2.306000000
H     9.206000000    -1.535000000    -2.020000000
H     8.047000000    -2.190000000    -2.741000000
