215
-1449.04732
C     4.895000000    -0.980000000     0.420000000
H     4.372000000    -1.751000000     0.980000000
C     4.739000000     0.278000000     0.917000000
C     5.456000000     1.312000000     0.137000000
H     5.311000000     2.361000000     0.381000000
C     3.782000000     0.684000000     1.947000000
O     3.845000000    -0.188000000     3.083000000
H     2.821000000     0.555000000     1.429000000
O     3.823000000     2.043000000     2.445000000
C     2.651000000     2.604000000     2.649000000
C     2.348000000     3.524000000     1.668000000
H     3.057000000     3.568000000     0.845000000
C     1.131000000     4.170000000     1.726000000
O     0.715000000     4.824000000     0.613000000
C     0.272000000     4.011000000     2.746000000
C    -1.118000000     4.604000000     2.816000000
H    -1.423000000     4.744000000     3.855000000
C    -2.081000000     3.748000000     2.082000000
C    -2.793000000     2.854000000     2.772000000
H    -2.581000000     2.668000000     3.822000000
H    -0.990000000     5.632000000     2.469000000
C     0.628000000     3.170000000     3.825000000
H    -0.075000000     3.047000000     4.645000000
C     1.801000000     2.376000000     3.768000000
C     2.254000000     1.438000000     4.832000000
H     1.801000000     1.714000000     5.786000000
H     3.321000000     1.526000000     5.049000000
C     1.854000000     0.018000000     4.571000000
C     0.694000000    -0.524000000     5.120000000
H     0.013000000     0.064000000     5.729000000
C     2.632000000    -0.696000000     3.631000000
C     2.260000000    -1.988000000     3.357000000
H     2.744000000    -2.655000000     2.649000000
C     1.037000000    -2.464000000     3.762000000
O     0.615000000    -3.666000000     3.282000000
C    -0.276000000    -3.683000000     2.176000000
C     0.096000000    -4.653000000     1.018000000
C    -0.904000000    -5.251000000     0.140000000
H    -1.929000000    -4.925000000     0.298000000
C     1.373000000    -5.169000000     0.956000000
H     2.091000000    -4.844000000     1.705000000
O    -1.604000000    -3.977000000     2.589000000
H    -0.197000000    -2.700000000     1.689000000
C     0.178000000    -1.750000000     4.656000000
C    -1.168000000    -2.319000000     4.990000000
H    -1.434000000    -1.792000000     5.908000000
H    -1.163000000    -3.406000000     5.089000000
C    -2.132000000    -1.976000000     3.837000000
C    -2.889000000    -0.790000000     3.908000000
H    -2.796000000    -0.130000000     4.767000000
C    -2.389000000    -2.883000000     2.793000000
C    -3.378000000    -2.546000000     1.850000000
H    -3.569000000    -3.288000000     1.079000000
C    -4.035000000    -1.289000000     1.859000000
O    -4.765000000    -1.022000000     0.773000000
C    -4.428000000    -0.020000000    -0.185000000
C    -4.858000000    -0.395000000    -1.591000000
C    -4.723000000    -1.747000000    -2.004000000
H    -4.468000000    -2.492000000    -1.255000000
C    -5.012000000     0.557000000    -2.564000000
H    -5.000000000     1.612000000    -2.301000000
O    -4.889000000     1.290000000     0.129000000
H    -3.331000000    -0.030000000    -0.259000000
C    -3.745000000    -0.379000000     2.897000000
C    -4.466000000     0.978000000     2.950000000
H    -4.498000000     1.051000000     4.039000000
H    -5.504000000     0.894000000     2.621000000
C    -3.719000000     2.053000000     2.162000000
C    -3.934000000     2.072000000     0.812000000
C    -3.188000000     3.006000000     0.077000000
H    -3.475000000     3.142000000    -0.963000000
C    -2.295000000     3.863000000     0.710000000
O    -1.540000000     4.596000000    -0.134000000
C    -0.148000000     4.095000000    -0.222000000
H    -0.037000000     3.046000000     0.088000000
C     0.199000000     4.275000000    -1.730000000
C     1.593000000     4.275000000    -2.106000000
H     2.430000000     4.242000000    -1.414000000
C    -0.801000000     4.293000000    -2.684000000
H    -1.848000000     4.478000000    -2.459000000
C    -0.471000000     4.303000000    -4.047000000
O    -1.477000000     4.312000000    -5.051000000
C     0.872000000     4.195000000    -4.452000000
H     0.949000000     4.162000000    -5.536000000
C     1.908000000     4.192000000    -3.476000000
O     3.173000000     3.866000000    -3.858000000
C     4.317000000     4.038000000    -3.200000000
C     5.054000000     2.949000000    -2.931000000
H     4.658000000     1.979000000    -3.221000000
C     4.636000000     5.311000000    -2.720000000
H     3.967000000     6.161000000    -2.823000000
C     5.811000000     5.535000000    -2.044000000
H     6.027000000     6.505000000    -1.603000000
C     6.542000000     4.425000000    -1.685000000
H     7.440000000     4.593000000    -1.096000000
C     6.218000000     3.131000000    -2.171000000
O     6.942000000     2.071000000    -1.677000000
C     6.343000000     1.051000000    -0.925000000
C     6.496000000    -0.331000000    -1.210000000
H     7.220000000    -0.636000000    -1.962000000
C     5.818000000    -1.325000000    -0.568000000
O     6.021000000    -2.643000000    -0.903000000
C     5.613000000    -3.659000000    -0.101000000
C     4.568000000    -4.514000000    -0.557000000
H     4.019000000    -4.231000000    -1.452000000
C     6.282000000    -3.989000000     1.077000000
H     7.115000000    -3.375000000     1.410000000
C     5.880000000    -5.202000000     1.769000000
H     6.448000000    -5.552000000     2.627000000
C     4.815000000    -5.974000000     1.325000000
H     4.645000000    -6.933000000     1.809000000
C     4.155000000    -5.640000000     0.150000000
O     3.138000000    -6.434000000    -0.298000000
C     1.810000000    -6.012000000    -0.068000000
C     0.839000000    -6.417000000    -1.004000000
H     1.026000000    -7.030000000    -1.882000000
C    -0.478000000    -6.110000000    -0.844000000
O    -1.450000000    -6.625000000    -1.706000000
C    -2.697000000    -6.060000000    -1.819000000
C    -2.962000000    -5.005000000    -2.689000000
H    -2.101000000    -4.506000000    -3.126000000
C    -3.843000000    -6.578000000    -1.151000000
H    -3.727000000    -7.388000000    -0.436000000
C    -5.108000000    -6.069000000    -1.351000000
H    -5.902000000    -6.539000000    -0.776000000
C    -5.301000000    -5.025000000    -2.229000000
H    -6.296000000    -4.609000000    -2.366000000
C    -4.228000000    -4.485000000    -2.898000000
O    -4.453000000    -3.380000000    -3.780000000
C    -4.726000000    -2.078000000    -3.362000000
C    -4.786000000    -1.129000000    -4.350000000
H    -4.622000000    -1.441000000    -5.379000000
C    -4.969000000     0.188000000    -3.954000000
O    -5.126000000     1.106000000    -4.919000000
C    -4.618000000     2.428000000    -4.769000000
C    -5.468000000     3.539000000    -4.467000000
H    -6.527000000     3.351000000    -4.313000000
C    -5.057000000     4.858000000    -4.528000000
H    -5.725000000     5.695000000    -4.342000000
C    -3.693000000     5.120000000    -4.707000000
H    -3.335000000     6.146000000    -4.747000000
C    -2.853000000     4.029000000    -4.844000000
C    -3.314000000     2.699000000    -4.967000000
H    -2.618000000     1.937000000    -5.309000000
C     1.329000000     0.671000000    -2.128000000
H     2.193000000     1.258000000    -2.428000000
C     0.949000000     0.808000000    -0.819000000
H     1.518000000     1.499000000    -0.202000000
C    -0.129000000     0.054000000    -0.363000000
H    -0.624000000     0.060000000     0.527000000
C    -0.886000000    -0.709000000    -1.293000000
H    -1.795000000    -1.183000000    -0.933000000
C    -0.489000000    -0.821000000    -2.662000000
H    -1.176000000    -1.369000000    -3.303000000
C     0.663000000    -0.144000000    -3.090000000
C     1.128000000    -0.212000000    -4.465000000
O     0.339000000    -0.517000000    -5.364000000
O     2.331000000    -0.258000000    -4.740000000
O    -1.580000000    -2.202000000    -6.337000000
H    -1.497000000    -1.808000000    -7.205000000
H    -0.822000000    -1.876000000    -5.853000000
O     2.956000000     3.600000000    -7.121000000
H     3.251000000     2.693000000    -7.038000000
H     2.164000000     3.546000000    -7.656000000
O     6.595000000     0.204000000    -6.757000000
H     6.032000000     0.030000000    -7.511000000
H     7.473000000     0.292000000    -7.129000000
O     3.599000000    -3.309000000    -7.636000000
H     3.769000000    -2.759000000    -6.872000000
H     2.668000000    -3.524000000    -7.575000000
O     5.791000000     3.196000000    -6.098000000
H     4.869000000     3.351000000    -5.892000000
H     5.790000000     2.928000000    -7.017000000
O    -0.794000000    -1.624000000    -8.857000000
H     0.075000000    -1.354000000    -8.559000000
H    -0.624000000    -2.192000000    -9.608000000
O     4.211000000    -2.091000000    -5.350000000
H     3.515000000    -1.504000000    -5.055000000
H     4.929000000    -1.940000000    -4.735000000
O     3.801000000     1.094000000    -6.653000000
H     3.435000000     0.879000000    -5.795000000
H     4.744000000     0.966000000    -6.550000000
O    -0.574000000     1.214000000    -7.177000000
H     0.273000000     1.086000000    -7.605000000
H    -0.512000000     0.707000000    -6.368000000
O    -2.378000000    -5.149000000    -6.163000000
H    -2.201000000    -4.255000000    -5.871000000
H    -3.273000000    -5.118000000    -6.501000000
O    -2.849000000    -0.004000000    -8.167000000
H    -2.240000000     0.486000000    -7.614000000
H    -2.285000000    -0.523000000    -8.741000000
O     1.105000000    -3.831000000    -6.495000000
H     0.880000000    -4.681000000    -6.117000000
H     0.891000000    -3.199000000    -5.808000000
O     1.589000000    -0.535000000    -7.796000000
H     1.104000000    -0.649000000    -6.978000000
H     2.382000000    -0.064000000    -7.540000000
O     0.595000000    -6.062000000    -4.755000000
H     0.619000000    -7.006000000    -4.908000000
H    -0.325000000    -5.823000000    -4.874000000
O     1.051000000    -4.821000000    -9.042000000
H     0.753000000    -4.290000000    -8.303000000
H     1.641000000    -4.245000000    -9.529000000
O     6.802000000    -1.302000000    -4.342000000
H     7.665000000    -1.073000000    -3.998000000
H     6.664000000    -0.694000000    -5.068000000
O     5.624000000    -1.735000000    -8.688000000
H     4.819000000    -2.133000000    -8.355000000
H     5.358000000    -1.302000000    -9.499000000
O     1.780000000    -2.248000000   -10.295000000
H     2.075000000    -1.703000000    -9.565000000
H     2.526000000    -2.818000000   -10.485000000
O    -2.279000000     3.510000000    -7.817000000
H    -2.223000000     3.768000000    -6.897000000
H    -1.588000000     2.856000000    -7.925000000
