215
-1454.04299
C    -4.081000000    -1.557000000    -2.266000000
H    -3.671000000    -0.605000000    -2.593000000
C    -4.284000000    -1.744000000    -0.887000000
C    -4.402000000    -3.060000000    -0.416000000
H    -4.575000000    -3.287000000     0.633000000
C    -4.161000000    -0.578000000     0.048000000
O    -4.725000000     0.586000000    -0.553000000
H    -3.077000000    -0.392000000     0.069000000
O    -4.607000000    -0.722000000     1.421000000
C    -3.730000000    -0.354000000     2.462000000
C    -2.887000000    -1.285000000     3.048000000
H    -2.889000000    -2.310000000     2.688000000
C    -1.975000000    -0.847000000     3.963000000
O    -1.160000000    -1.840000000     4.372000000
C    -2.032000000     0.417000000     4.523000000
C    -0.977000000     0.905000000     5.475000000
H    -1.389000000     1.795000000     5.954000000
C     0.378000000     1.258000000     4.849000000
C     0.724000000     2.575000000     4.576000000
H    -0.033000000     3.347000000     4.693000000
H    -0.912000000     0.333000000     6.404000000
C    -2.865000000     1.341000000     3.966000000
H    -2.894000000     2.351000000     4.368000000
C    -3.727000000     0.930000000     2.908000000
C    -4.624000000     1.925000000     2.106000000
H    -4.909000000     2.597000000     2.918000000
H    -5.596000000     1.492000000     1.861000000
C    -3.979000000     2.513000000     0.879000000
C    -3.215000000     3.583000000     0.974000000
H    -3.221000000     4.132000000     1.912000000
C    -4.077000000     1.801000000    -0.358000000
C    -3.401000000     2.238000000    -1.437000000
H    -3.506000000     1.638000000    -2.337000000
C    -2.668000000     3.418000000    -1.381000000
O    -2.036000000     3.846000000    -2.566000000
C    -0.567000000     3.514000000    -2.698000000
C    -0.263000000     3.031000000    -4.160000000
C     1.040000000     3.210000000    -4.656000000
H     1.803000000     3.812000000    -4.168000000
C    -1.197000000     2.210000000    -4.865000000
H    -2.181000000     1.982000000    -4.464000000
O     0.247000000     4.552000000    -2.137000000
H    -0.332000000     2.638000000    -2.076000000
C    -2.548000000     4.103000000    -0.155000000
C    -1.671000000     5.344000000    -0.096000000
H    -1.988000000     5.985000000     0.730000000
H    -1.611000000     6.001000000    -0.966000000
C    -0.299000000     4.815000000     0.190000000
C     0.243000000     4.801000000     1.464000000
H    -0.350000000     5.019000000     2.348000000
C     0.641000000     4.556000000    -0.827000000
C     1.972000000     4.160000000    -0.629000000
H     2.632000000     3.770000000    -1.399000000
C     2.350000000     4.006000000     0.711000000
O     3.564000000     3.433000000     0.858000000
C     3.562000000     2.008000000     1.367000000
C     4.458000000     1.094000000     0.474000000
C     4.450000000     1.277000000    -0.883000000
H     3.840000000     2.072000000    -1.304000000
C     5.171000000     0.029000000     1.115000000
H     5.130000000    -0.146000000     2.187000000
O     3.826000000     1.982000000     2.789000000
H     2.519000000     1.714000000     1.176000000
C     1.531000000     4.410000000     1.784000000
C     2.102000000     4.173000000     3.190000000
H     1.632000000     4.850000000     3.906000000
H     3.153000000     4.467000000     3.210000000
C     1.826000000     2.845000000     3.769000000
C     2.700000000     1.776000000     3.539000000
C     2.423000000     0.472000000     3.971000000
H     3.089000000    -0.341000000     3.691000000
C     1.252000000     0.171000000     4.563000000
O     0.967000000    -1.146000000     4.739000000
C     0.132000000    -1.934000000     3.830000000
H     0.173000000    -1.427000000     2.855000000
C     0.511000000    -3.423000000     3.580000000
C    -0.507000000    -4.306000000     3.270000000
H    -1.562000000    -4.045000000     3.244000000
C     1.832000000    -3.785000000     3.430000000
H     2.569000000    -2.987000000     3.465000000
C     2.197000000    -5.026000000     2.989000000
O     3.604000000    -5.198000000     2.795000000
C     1.189000000    -5.855000000     2.642000000
H     1.426000000    -6.811000000     2.181000000
C    -0.185000000    -5.502000000     2.714000000
O    -1.116000000    -6.392000000     2.329000000
C    -2.453000000    -6.236000000     2.112000000
C    -2.819000000    -5.985000000     0.797000000
H    -2.021000000    -6.014000000     0.060000000
C    -3.393000000    -6.218000000     3.062000000
H    -3.131000000    -6.330000000     4.111000000
C    -4.756000000    -6.067000000     2.754000000
H    -5.491000000    -6.163000000     3.548000000
C    -5.159000000    -5.868000000     1.448000000
H    -6.214000000    -5.754000000     1.210000000
C    -4.124000000    -5.823000000     0.486000000
O    -4.370000000    -5.450000000    -0.784000000
C    -4.293000000    -4.148000000    -1.359000000
C    -4.251000000    -3.922000000    -2.753000000
H    -4.235000000    -4.801000000    -3.393000000
C    -4.196000000    -2.616000000    -3.177000000
O    -3.888000000    -2.400000000    -4.506000000
C    -4.085000000    -1.179000000    -5.181000000
C    -2.905000000    -0.482000000    -5.538000000
H    -1.942000000    -0.970000000    -5.408000000
C    -5.295000000    -0.658000000    -5.622000000
H    -6.210000000    -1.054000000    -5.190000000
C    -5.336000000     0.537000000    -6.337000000
H    -6.257000000     0.950000000    -6.742000000
C    -4.235000000     1.168000000    -6.755000000
H    -4.173000000     2.014000000    -7.435000000
C    -3.004000000     0.590000000    -6.467000000
O    -1.837000000     1.147000000    -7.010000000
C    -0.891000000     1.781000000    -6.186000000
C     0.433000000     1.978000000    -6.649000000
H     0.827000000     1.508000000    -7.546000000
C     1.379000000     2.677000000    -5.881000000
O     2.705000000     2.699000000    -6.283000000
C     3.773000000     2.706000000    -5.444000000
C     3.883000000     1.635000000    -4.591000000
H     3.138000000     0.856000000    -4.455000000
C     4.734000000     3.736000000    -5.519000000
H     4.661000000     4.574000000    -6.208000000
C     5.772000000     3.730000000    -4.540000000
H     6.577000000     4.460000000    -4.558000000
C     5.984000000     2.636000000    -3.689000000
H     6.826000000     2.635000000    -3.001000000
C     4.997000000     1.627000000    -3.714000000
O     5.172000000     0.463000000    -2.996000000
C     5.249000000     0.439000000    -1.663000000
C     5.939000000    -0.615000000    -1.088000000
H     6.447000000    -1.329000000    -1.731000000
C     5.902000000    -0.828000000     0.294000000
O     6.487000000    -2.031000000     0.713000000
C     6.112000000    -2.760000000     1.805000000
C     6.982000000    -2.807000000     2.883000000
H     7.917000000    -2.261000000     2.795000000
C     6.681000000    -3.594000000     3.994000000
H     7.396000000    -3.741000000     4.799000000
C     5.522000000    -4.360000000     4.019000000
H     5.303000000    -4.908000000     4.932000000
C     4.590000000    -4.282000000     2.929000000
C     5.002000000    -3.613000000     1.786000000
H     4.323000000    -3.650000000     0.939000000
C     0.142000000    -2.985000000    -0.040000000
H    -0.444000000    -3.865000000     0.212000000
C    -0.433000000    -1.736000000     0.224000000
H    -1.434000000    -1.638000000     0.635000000
C     0.254000000    -0.562000000    -0.007000000
H    -0.136000000     0.457000000     0.236000000
C     1.524000000    -0.697000000    -0.628000000
H     1.989000000     0.224000000    -0.970000000
C     2.067000000    -1.936000000    -0.880000000
H     3.031000000    -1.935000000    -1.383000000
C     1.432000000    -3.098000000    -0.600000000
C     2.112000000    -4.393000000    -0.870000000
O     3.100000000    -4.361000000    -1.530000000
O     1.470000000    -5.442000000    -0.696000000
O    -2.340000000    -8.993000000    -0.922000000
H    -1.768000000    -8.404000000    -0.432000000
H    -2.030000000    -8.932000000    -1.826000000
O     4.331000000    -7.882000000    -5.553000000
H     3.801000000    -7.398000000    -4.919000000
H     5.105000000    -7.335000000    -5.685000000
O     3.408000000    -7.199000000     0.384000000
H     2.836000000    -6.504000000     0.059000000
H     4.224000000    -7.085000000    -0.102000000
O    -2.609000000    -7.027000000    -3.499000000
H    -2.111000000    -6.893000000    -4.305000000
H    -2.224000000    -6.412000000    -2.874000000
O     4.345000000    -2.098000000    -5.645000000
H     3.578000000    -2.116000000    -5.072000000
H     3.984000000    -2.147000000    -6.530000000
O     8.332000000    -3.679000000    -1.024000000
H     7.605000000    -3.825000000    -1.629000000
H     7.948000000    -3.177000000    -0.305000000
O     5.845000000    -3.973000000    -2.262000000
H     5.861000000    -3.949000000    -3.218000000
H     4.926000000    -3.836000000    -2.034000000
O     5.821000000    -6.677000000    -0.748000000
H     5.892000000    -5.927000000    -1.338000000
H     6.724000000    -6.971000000    -0.625000000
O    -0.108000000    -7.672000000    -0.834000000
H     0.307000000    -6.837000000    -0.619000000
H     0.362000000    -8.317000000    -0.305000000
O     0.478000000    -8.148000000    -3.454000000
H     0.839000000    -9.016000000    -3.631000000
H     0.227000000    -8.177000000    -2.530000000
O     5.428000000    -9.490000000    -1.930000000
H     5.361000000    -9.908000000    -1.071000000
H     4.854000000    -8.727000000    -1.870000000
O    -0.407000000    -2.763000000    -3.786000000
H    -0.856000000    -2.397000000    -3.024000000
H    -0.365000000    -3.703000000    -3.611000000
O    -0.331000000    -5.343000000    -2.810000000
H    -0.099000000    -6.080000000    -3.375000000
H     0.261000000    -5.420000000    -2.061000000
O     5.072000000   -10.266000000     0.630000000
H     4.837000000    -9.366000000     0.856000000
H     5.685000000   -10.533000000     1.315000000
O     6.043000000    -4.005000000    -4.945000000
H     5.524000000    -3.308000000    -5.345000000
H     6.045000000    -4.707000000    -5.596000000
O     3.013000000    -6.287000000    -3.565000000
H     3.200000000    -5.485000000    -3.078000000
H     2.563000000    -6.851000000    -2.936000000
O     1.652000000    -9.275000000     0.447000000
H     2.413000000    -8.711000000     0.586000000
H     2.018000000   -10.091000000     0.107000000
O     3.913000000    -8.504000000     3.004000000
H     4.455000000    -8.179000000     3.723000000
H     3.859000000    -7.769000000     2.393000000
O     2.332000000    -2.450000000    -3.921000000
H     1.381000000    -2.488000000    -4.021000000
H     2.498000000    -2.832000000    -3.059000000
