215
-1469.74255
C    -4.582000000    -0.857000000    -2.458000000
H    -4.136000000     0.043000000    -2.874000000
C    -4.682000000    -1.042000000    -1.104000000
C    -5.030000000    -2.228000000    -0.524000000
H    -4.979000000    -2.375000000     0.551000000
C    -4.185000000     0.103000000    -0.170000000
O    -4.599000000     1.346000000    -0.799000000
H    -3.099000000     0.104000000     0.001000000
O    -4.902000000     0.042000000     1.103000000
C    -4.187000000     0.430000000     2.203000000
C    -3.614000000    -0.595000000     2.879000000
H    -3.818000000    -1.637000000     2.647000000
C    -2.657000000    -0.321000000     3.809000000
O    -1.956000000    -1.368000000     4.325000000
C    -2.362000000     1.015000000     4.134000000
C    -1.335000000     1.315000000     5.156000000
H    -1.534000000     2.254000000     5.676000000
C     0.037000000     1.381000000     4.611000000
C     0.557000000     2.588000000     4.212000000
H    -0.103000000     3.446000000     4.310000000
H    -1.386000000     0.564000000     5.947000000
C    -2.960000000     2.050000000     3.499000000
H    -2.624000000     3.079000000     3.595000000
C    -3.818000000     1.769000000     2.434000000
C    -4.368000000     2.951000000     1.661000000
H    -4.342000000     3.767000000     2.385000000
H    -5.407000000     2.652000000     1.502000000
C    -3.567000000     3.142000000     0.396000000
C    -2.693000000     4.200000000     0.417000000
H    -2.555000000     4.799000000     1.313000000
C    -3.769000000     2.373000000    -0.729000000
C    -3.045000000     2.637000000    -1.837000000
H    -3.226000000     2.097000000    -2.762000000
C    -2.073000000     3.637000000    -1.838000000
O    -1.232000000     3.612000000    -2.921000000
C     0.122000000     3.217000000    -2.695000000
C     0.616000000     2.523000000    -3.886000000
C     1.900000000     2.717000000    -4.402000000
H     2.668000000     3.337000000    -3.948000000
C    -0.292000000     1.665000000    -4.455000000
H    -1.253000000     1.468000000    -3.988000000
O     1.019000000     4.293000000    -2.297000000
H     0.188000000     2.400000000    -1.961000000
C    -1.910000000     4.428000000    -0.664000000
C    -0.815000000     5.496000000    -0.502000000
H    -1.138000000     6.224000000     0.245000000
H    -0.596000000     6.033000000    -1.428000000
C     0.484000000     4.858000000    -0.026000000
C     0.736000000     4.655000000     1.322000000
H     0.034000000     5.008000000     2.073000000
C     1.421000000     4.423000000    -0.977000000
C     2.666000000     3.883000000    -0.603000000
H     3.355000000     3.336000000    -1.241000000
C     2.952000000     3.805000000     0.749000000
O     4.001000000     2.983000000     1.143000000
C     3.701000000     1.614000000     1.481000000
C     4.529000000     0.580000000     0.744000000
C     5.175000000     0.810000000    -0.540000000
H     5.330000000     1.824000000    -0.901000000
C     4.577000000    -0.775000000     1.181000000
H     3.903000000    -1.059000000     1.984000000
O     3.843000000     1.525000000     2.967000000
H     2.645000000     1.403000000     1.256000000
C     2.000000000     4.202000000     1.714000000
C     2.345000000     3.991000000     3.197000000
H     1.932000000     4.836000000     3.752000000
H     3.425000000     4.130000000     3.287000000
C     1.828000000     2.681000000     3.676000000
C     2.642000000     1.569000000     3.681000000
C     2.186000000     0.352000000     4.262000000
H     2.800000000    -0.545000000     4.282000000
C     0.836000000     0.252000000     4.586000000
O     0.344000000    -0.958000000     4.828000000
C    -0.563000000    -1.505000000     3.924000000
H    -0.345000000    -0.885000000     3.042000000
C    -0.266000000    -2.983000000     3.605000000
C    -1.301000000    -3.786000000     3.032000000
H    -2.240000000    -3.280000000     2.822000000
C     1.025000000    -3.530000000     3.647000000
H     1.904000000    -3.008000000     4.016000000
C     1.139000000    -4.909000000     3.392000000
O     2.310000000    -5.485000000     3.658000000
C     0.173000000    -5.666000000     2.807000000
H     0.278000000    -6.703000000     2.496000000
C    -1.094000000    -5.095000000     2.582000000
O    -2.071000000    -5.886000000     2.048000000
C    -3.345000000    -5.492000000     1.881000000
C    -3.821000000    -5.090000000     0.594000000
H    -3.184000000    -5.004000000    -0.283000000
C    -4.205000000    -5.613000000     2.923000000
H    -3.936000000    -6.025000000     3.892000000
C    -5.585000000    -5.391000000     2.722000000
H    -6.340000000    -5.525000000     3.492000000
C    -6.077000000    -4.996000000     1.493000000
H    -7.127000000    -4.738000000     1.379000000
C    -5.180000000    -4.808000000     0.458000000
O    -5.653000000    -4.485000000    -0.736000000
C    -5.411000000    -3.265000000    -1.348000000
C    -5.422000000    -3.170000000    -2.695000000
H    -5.719000000    -4.047000000    -3.264000000
C    -4.997000000    -1.953000000    -3.295000000
O    -4.802000000    -1.989000000    -4.658000000
C    -4.090000000    -1.048000000    -5.366000000
C    -2.666000000    -1.109000000    -5.363000000
H    -2.072000000    -1.937000000    -4.984000000
C    -4.816000000    -0.005000000    -5.965000000
H    -5.881000000     0.094000000    -5.770000000
C    -4.166000000     1.034000000    -6.616000000
H    -4.658000000     1.847000000    -7.145000000
C    -2.740000000     0.992000000    -6.665000000
H    -2.210000000     1.850000000    -7.070000000
C    -2.013000000    -0.013000000    -6.059000000
O    -0.625000000    -0.045000000    -6.201000000
C     0.151000000     0.844000000    -5.579000000
C     1.453000000     0.977000000    -6.033000000
H     1.797000000     0.318000000    -6.825000000
C     2.335000000     1.940000000    -5.472000000
O     3.682000000     1.979000000    -5.913000000
C     4.844000000     1.882000000    -5.091000000
C     5.016000000     0.978000000    -4.004000000
H     4.304000000     0.179000000    -3.819000000
C     5.886000000     2.745000000    -5.344000000
H     5.744000000     3.433000000    -6.173000000
C     7.141000000     2.678000000    -4.770000000
H     7.939000000     3.333000000    -5.108000000
C     7.293000000     1.742000000    -3.727000000
H     8.265000000     1.681000000    -3.243000000
C     6.224000000     0.955000000    -3.311000000
O     6.513000000    -0.072000000    -2.407000000
C     5.765000000    -0.266000000    -1.271000000
C     5.805000000    -1.594000000    -0.774000000
H     6.197000000    -2.428000000    -1.351000000
C     5.213000000    -1.838000000     0.503000000
O     5.174000000    -3.164000000     0.777000000
C     4.925000000    -3.628000000     2.067000000
C     5.946000000    -3.687000000     3.030000000
H     6.932000000    -3.248000000     2.899000000
C     5.698000000    -4.395000000     4.185000000
H     6.506000000    -4.532000000     4.899000000
C     4.550000000    -5.075000000     4.323000000
H     4.389000000    -5.680000000     5.212000000
C     3.559000000    -4.986000000     3.412000000
C     3.717000000    -4.259000000     2.275000000
H     2.911000000    -4.268000000     1.546000000
C     0.819000000    -2.767000000    -0.010000000
H     0.523000000    -3.785000000     0.228000000
C     0.218000000    -1.678000000     0.589000000
H    -0.640000000    -1.913000000     1.213000000
C     0.555000000    -0.398000000     0.202000000
H    -0.069000000     0.401000000     0.479000000
C     1.515000000    -0.231000000    -0.781000000
H     1.716000000     0.742000000    -1.222000000
C     2.073000000    -1.340000000    -1.454000000
H     2.797000000    -1.163000000    -2.245000000
C     1.733000000    -2.608000000    -1.104000000
C     2.446000000    -3.709000000    -1.746000000
O     2.852000000    -3.639000000    -2.879000000
O     2.614000000    -4.766000000    -1.136000000
O     4.218000000    -7.734000000    -4.243000000
H     3.480000000    -7.125000000    -4.230000000
H     4.838000000    -7.373000000    -3.610000000
O     2.772000000    -6.788000000     0.768000000
H     2.749000000    -5.875000000     0.481000000
H     3.699000000    -7.024000000     0.739000000
O     4.875000000    -1.484000000    -6.123000000
H     4.052000000    -1.972000000    -6.127000000
H     5.077000000    -1.364000000    -5.195000000
O    -0.402000000    -2.673000000    -6.936000000
H    -0.342000000    -1.748000000    -6.697000000
H     0.254000000    -2.786000000    -7.624000000
O     4.640000000    -4.698000000    -8.573000000
H     4.092000000    -4.731000000    -7.790000000
H     5.332000000    -4.073000000    -8.355000000
O     7.523000000    -4.891000000     0.198000000
H     7.024000000    -5.698000000     0.072000000
H     6.858000000    -4.215000000     0.325000000
O     5.150000000    -6.001000000    -1.282000000
H     5.554000000    -5.409000000    -1.916000000
H     4.210000000    -5.844000000    -1.373000000
O     5.388000000    -7.417000000     1.909000000
H     6.153000000    -7.106000000     2.393000000
H     4.901000000    -7.944000000     2.543000000
O     0.565000000    -8.367000000     0.095000000
H     1.363000000    -7.844000000     0.016000000
H     0.744000000    -8.968000000     0.818000000
O     1.920000000    -5.666000000    -7.180000000
H     2.071000000    -5.784000000    -6.242000000
H     1.278000000    -6.339000000    -7.405000000
O     4.665000000    -9.071000000    -0.640000000
H     5.354000000    -9.271000000    -0.007000000
H     4.879000000    -8.193000000    -0.957000000
O    -1.622000000    -4.219000000    -3.171000000
H    -2.163000000    -3.602000000    -2.678000000
H    -1.179000000    -4.738000000    -2.500000000
O     6.459000000    -4.186000000    -5.872000000
H     7.020000000    -4.953000000    -5.985000000
H     6.689000000    -3.611000000    -6.602000000
O    -0.026000000    -5.783000000    -1.377000000
H     0.868000000    -5.557000000    -1.121000000
H    -0.133000000    -6.692000000    -1.095000000
O     5.696000000    -4.338000000    -3.139000000
H     4.774000000    -4.124000000    -3.278000000
H     6.101000000    -4.224000000    -3.999000000
O     2.168000000    -5.968000000    -4.192000000
H     2.378000000    -5.079000000    -3.905000000
H     1.555000000    -6.295000000    -3.534000000
O    -2.156000000    -4.650000000    -5.750000000
H    -1.933000000    -4.545000000    -4.825000000
H    -1.663000000    -3.960000000    -6.195000000
O     3.115000000    -8.425000000     3.212000000
H     2.633000000    -7.637000000     2.959000000
H     2.973000000    -9.035000000     2.488000000
O     2.461000000    -2.414000000    -5.119000000
H     1.649000000    -2.874000000    -5.330000000
H     2.666000000    -2.688000000    -4.225000000
