215
-1465.45633
C     4.250000000    -1.145000000     2.456000000
H     3.555000000    -1.959000000     2.644000000
C     3.802000000     0.087000000     2.880000000
C     4.629000000     1.171000000     2.642000000
H     4.453000000     2.182000000     3.001000000
C     2.402000000     0.289000000     3.448000000
O     2.116000000    -0.622000000     4.502000000
H     1.617000000     0.251000000     2.679000000
O     2.323000000     1.613000000     3.974000000
C     1.255000000     2.413000000     3.663000000
C     1.329000000     3.426000000     2.701000000
H     2.310000000     3.694000000     2.318000000
C     0.212000000     4.166000000     2.370000000
O     0.329000000     4.873000000     1.192000000
C    -1.032000000     3.844000000     3.002000000
C    -2.370000000     4.516000000     2.602000000
H    -3.085000000     4.409000000     3.421000000
C    -2.997000000     3.688000000     1.495000000
C    -3.888000000     2.666000000     1.812000000
H    -4.186000000     2.535000000     2.850000000
H    -2.186000000     5.542000000     2.279000000
C    -1.104000000     2.785000000     3.891000000
H    -2.103000000     2.694000000     4.312000000
C     0.047000000     2.111000000     4.296000000
C    -0.061000000     1.125000000     5.533000000
H    -0.844000000     1.487000000     6.203000000
H     0.943000000     1.199000000     5.956000000
C    -0.202000000    -0.322000000     4.994000000
C    -1.494000000    -0.824000000     4.796000000
H    -2.330000000    -0.261000000     5.201000000
C     0.848000000    -1.077000000     4.537000000
C     0.675000000    -2.370000000     4.048000000
H     1.576000000    -2.940000000     3.839000000
C    -0.577000000    -2.889000000     3.881000000
O    -0.677000000    -3.967000000     3.063000000
C    -1.042000000    -3.719000000     1.639000000
C    -0.158000000    -4.597000000     0.691000000
C    -0.571000000    -4.545000000    -0.687000000
H    -1.479000000    -4.045000000    -1.014000000
C     1.013000000    -5.169000000     1.042000000
H     1.425000000    -5.156000000     2.048000000
O    -2.507000000    -3.999000000     1.518000000
H    -0.798000000    -2.706000000     1.287000000
C    -1.699000000    -2.117000000     4.257000000
C    -3.098000000    -2.598000000     4.051000000
H    -3.703000000    -2.192000000     4.863000000
H    -3.159000000    -3.688000000     4.071000000
C    -3.619000000    -2.233000000     2.637000000
C    -4.259000000    -0.960000000     2.492000000
H    -4.419000000    -0.361000000     3.385000000
C    -3.379000000    -2.998000000     1.538000000
C    -3.773000000    -2.544000000     0.281000000
H    -3.440000000    -3.137000000    -0.567000000
C    -4.424000000    -1.319000000     0.100000000
O    -4.791000000    -0.918000000    -1.184000000
C    -3.924000000     0.160000000    -1.762000000
C    -3.665000000    -0.112000000    -3.309000000
C    -3.477000000    -1.405000000    -3.814000000
H    -3.537000000    -2.229000000    -3.108000000
C    -3.589000000     0.976000000    -4.161000000
H    -3.779000000     1.974000000    -3.774000000
O    -4.539000000     1.428000000    -1.559000000
H    -2.935000000     0.142000000    -1.281000000
C    -4.699000000    -0.543000000     1.240000000
C    -5.463000000     0.767000000     1.092000000
H    -5.959000000     0.991000000     2.039000000
H    -6.258000000     0.597000000     0.364000000
C    -4.440000000     1.847000000     0.754000000
C    -4.040000000     2.125000000    -0.518000000
C    -3.118000000     3.144000000    -0.850000000
H    -2.796000000     3.160000000    -1.888000000
C    -2.588000000     3.954000000     0.170000000
O    -1.525000000     4.735000000    -0.195000000
C    -0.191000000     4.142000000     0.076000000
H    -0.310000000     3.055000000     0.195000000
C     0.759000000     4.364000000    -1.134000000
C     2.166000000     4.416000000    -0.981000000
H     2.545000000     4.695000000    -0.001000000
C     0.291000000     4.045000000    -2.419000000
H    -0.765000000     3.881000000    -2.620000000
C     1.136000000     3.886000000    -3.498000000
O     0.707000000     3.612000000    -4.711000000
C     2.496000000     3.855000000    -3.261000000
H     3.115000000     3.504000000    -4.083000000
C     3.017000000     4.224000000    -2.097000000
O     4.403000000     4.349000000    -1.947000000
C     4.977000000     4.383000000    -0.697000000
C     5.358000000     3.142000000    -0.086000000
H     4.921000000     2.222000000    -0.467000000
C     5.423000000     5.582000000    -0.142000000
H     5.175000000     6.486000000    -0.693000000
C     6.167000000     5.576000000     1.049000000
H     6.324000000     6.473000000     1.641000000
C     6.558000000     4.391000000     1.600000000
H     7.136000000     4.330000000     2.518000000
C     6.124000000     3.148000000     1.042000000
O     6.632000000     2.015000000     1.548000000
C     5.885000000     0.972000000     1.885000000
C     6.267000000    -0.374000000     1.655000000
H     7.215000000    -0.515000000     1.141000000
C     5.444000000    -1.447000000     1.900000000
O     5.860000000    -2.736000000     1.608000000
C     5.208000000    -3.932000000     1.937000000
C     4.243000000    -4.485000000     1.097000000
H     3.911000000    -3.936000000     0.219000000
C     5.855000000    -4.694000000     2.878000000
H     6.678000000    -4.262000000     3.442000000
C     5.459000000    -5.989000000     3.117000000
H     5.902000000    -6.539000000     3.942000000
C     4.495000000    -6.556000000     2.249000000
H     4.111000000    -7.557000000     2.428000000
C     3.888000000    -5.833000000     1.239000000
O     3.014000000    -6.403000000     0.405000000
C     1.790000000    -5.851000000     0.141000000
C     1.325000000    -5.985000000    -1.181000000
H     1.974000000    -6.505000000    -1.881000000
C     0.173000000    -5.295000000    -1.606000000
O    -0.058000000    -5.226000000    -2.972000000
C    -1.278000000    -5.178000000    -3.545000000
C    -1.554000000    -4.051000000    -4.328000000
H    -0.713000000    -3.401000000    -4.553000000
C    -2.262000000    -6.165000000    -3.417000000
H    -2.136000000    -6.955000000    -2.681000000
C    -3.460000000    -6.075000000    -4.163000000
H    -4.235000000    -6.831000000    -4.061000000
C    -3.746000000    -4.963000000    -4.924000000
H    -4.650000000    -4.908000000    -5.525000000
C    -2.786000000    -3.938000000    -4.979000000
O    -3.036000000    -2.824000000    -5.729000000
C    -3.320000000    -1.588000000    -5.180000000
C    -3.164000000    -0.542000000    -6.047000000
H    -3.039000000    -0.721000000    -7.112000000
C    -3.319000000     0.786000000    -5.536000000
O    -3.308000000     1.844000000    -6.409000000
C    -2.494000000     2.862000000    -6.258000000
C    -2.856000000     4.081000000    -6.757000000
H    -3.806000000     4.149000000    -7.281000000
C    -2.210000000     5.238000000    -6.372000000
H    -2.617000000     6.236000000    -6.509000000
C    -0.932000000     5.089000000    -5.726000000
H    -0.260000000     5.940000000    -5.646000000
C    -0.553000000     3.791000000    -5.284000000
C    -1.306000000     2.679000000    -5.542000000
H    -1.067000000     1.647000000    -5.299000000
C     1.618000000     0.430000000    -1.792000000
H     2.499000000     1.044000000    -1.962000000
C     0.976000000     0.605000000    -0.521000000
H     1.330000000     1.329000000     0.209000000
C    -0.151000000    -0.059000000    -0.187000000
H    -0.568000000     0.034000000     0.789000000
C    -0.747000000    -0.934000000    -1.118000000
H    -1.478000000    -1.639000000    -0.730000000
C    -0.176000000    -1.096000000    -2.368000000
H    -0.650000000    -1.861000000    -2.977000000
C     1.026000000    -0.453000000    -2.739000000
C     1.672000000    -0.685000000    -4.056000000
O     1.181000000    -1.443000000    -4.868000000
O     2.737000000    -0.107000000    -4.379000000
O     4.764000000    -1.409000000    -5.166000000
H     3.861000000    -1.136000000    -5.006000000
H     5.128000000    -1.556000000    -4.292000000
O     3.961000000    -4.104000000    -2.278000000
H     3.194000000    -4.633000000    -2.060000000
H     4.186000000    -4.364000000    -3.171000000
O     6.758000000    -3.226000000    -6.394000000
H     6.258000000    -2.434000000    -6.196000000
H     6.200000000    -3.718000000    -6.996000000
O     0.043000000    -4.672000000    -7.463000000
H     0.451000000    -5.329000000    -8.028000000
H     0.756000000    -4.074000000    -7.237000000
O     2.846000000    -6.231000000    -4.282000000
H     1.984000000    -6.000000000    -4.629000000
H     3.432000000    -5.559000000    -4.629000000
O     7.778000000     1.771000000    -2.599000000
H     6.826000000     1.844000000    -2.667000000
H     8.016000000     1.121000000    -3.261000000
O     2.956000000    -3.816000000    -9.506000000
H     3.043000000    -2.863000000    -9.497000000
H     2.656000000    -4.021000000   -10.391000000
O     3.501000000     1.879000000    -6.085000000
H     3.301000000     1.235000000    -5.406000000
H     2.746000000     1.852000000    -6.672000000
O     2.127000000    -3.183000000    -6.459000000
H     1.495000000    -2.770000000    -5.871000000
H     2.520000000    -2.453000000    -6.939000000
O     4.885000000    -4.868000000    -5.004000000
H     5.299000000    -4.054000000    -5.292000000
H     5.550000000    -5.541000000    -5.152000000
O     1.248000000     2.356000000    -7.641000000
H     0.778000000     2.896000000    -8.277000000
H     1.438000000     2.951000000    -6.916000000
O     3.275000000    -5.838000000    -7.719000000
H     2.977000000    -5.388000000    -6.929000000
H     3.209000000    -5.178000000    -8.410000000
O     5.268000000    -1.061000000    -2.208000000
H     5.821000000    -1.778000000    -1.898000000
H     4.407000000    -1.242000000    -1.830000000
O     2.775000000    -0.904000000    -9.443000000
H     2.306000000    -0.723000000    -8.628000000
H     2.826000000    -0.056000000    -9.883000000
O    -0.973000000    -1.603000000    -9.415000000
H    -0.356000000    -1.917000000    -8.755000000
H    -0.788000000    -0.667000000    -9.490000000
O     0.838000000    -0.450000000    -7.398000000
H     0.926000000    -0.695000000    -6.477000000
H     0.770000000     0.504000000    -7.387000000
O     5.872000000     0.671000000    -6.672000000
H     5.173000000     1.300000000    -6.848000000
H     5.442000000    -0.037000000    -6.192000000
O     0.594000000    -7.008000000    -5.816000000
H     0.267000000    -6.109000000    -5.820000000
H     0.789000000    -7.196000000    -6.734000000
O     5.220000000     1.383000000    -3.459000000
H     4.643000000     1.455000000    -4.220000000
H     5.040000000     0.514000000    -3.103000000
