215
-1468.20936
C     4.553000000    -1.426000000     2.574000000
H     3.894000000    -2.237000000     2.872000000
C     4.174000000    -0.071000000     2.771000000
C     4.928000000     0.949000000     2.287000000
H     4.608000000     1.967000000     2.494000000
C     2.907000000     0.211000000     3.484000000
O     2.534000000    -0.804000000     4.378000000
H     2.178000000     0.218000000     2.660000000
O     2.897000000     1.520000000     4.094000000
C     1.757000000     2.282000000     3.922000000
C     1.748000000     3.170000000     2.819000000
H     2.695000000     3.315000000     2.305000000
C     0.566000000     3.763000000     2.394000000
O     0.641000000     4.554000000     1.238000000
C    -0.583000000     3.672000000     3.133000000
C    -1.856000000     4.352000000     2.750000000
H    -2.569000000     4.315000000     3.577000000
C    -2.662000000     3.687000000     1.626000000
C    -3.748000000     2.840000000     1.989000000
H    -4.044000000     2.736000000     3.030000000
H    -1.666000000     5.403000000     2.522000000
C    -0.595000000     2.780000000     4.265000000
H    -1.492000000     2.567000000     4.840000000
C     0.507000000     1.968000000     4.548000000
C     0.494000000     0.918000000     5.607000000
H    -0.262000000     1.118000000     6.368000000
H     1.459000000     0.892000000     6.118000000
C     0.219000000    -0.390000000     4.925000000
C    -1.119000000    -0.866000000     4.835000000
H    -1.838000000    -0.217000000     5.328000000
C     1.239000000    -1.173000000     4.391000000
C     0.958000000    -2.394000000     3.755000000
H     1.750000000    -2.987000000     3.306000000
C    -0.351000000    -2.820000000     3.563000000
O    -0.656000000    -3.984000000     2.739000000
C    -1.074000000    -3.737000000     1.411000000
C    -0.431000000    -4.638000000     0.364000000
C    -1.019000000    -4.998000000    -0.834000000
H    -2.055000000    -4.722000000    -1.009000000
C     0.911000000    -4.855000000     0.434000000
H     1.400000000    -4.437000000     1.310000000
O    -2.513000000    -3.915000000     1.334000000
H    -0.845000000    -2.694000000     1.148000000
C    -1.400000000    -2.064000000     4.132000000
C    -2.832000000    -2.556000000     3.988000000
H    -3.507000000    -2.261000000     4.795000000
H    -2.906000000    -3.645000000     4.025000000
C    -3.365000000    -2.089000000     2.685000000
C    -4.095000000    -0.860000000     2.649000000
H    -4.287000000    -0.240000000     3.521000000
C    -3.184000000    -2.795000000     1.497000000
C    -3.778000000    -2.253000000     0.338000000
H    -3.723000000    -2.829000000    -0.582000000
C    -4.564000000    -1.151000000     0.302000000
O    -4.901000000    -0.702000000    -0.961000000
C    -4.135000000     0.298000000    -1.642000000
C    -4.084000000    -0.022000000    -3.149000000
C    -3.862000000    -1.294000000    -3.639000000
H    -3.702000000    -2.193000000    -3.050000000
C    -3.879000000     1.105000000    -3.981000000
H    -4.062000000     2.116000000    -3.627000000
O    -4.611000000     1.659000000    -1.395000000
H    -3.086000000     0.171000000    -1.335000000
C    -4.769000000    -0.413000000     1.461000000
C    -5.454000000     0.973000000     1.416000000
H    -5.835000000     1.126000000     2.428000000
H    -6.342000000     0.981000000     0.780000000
C    -4.437000000     2.043000000     1.022000000
C    -4.162000000     2.371000000    -0.319000000
C    -3.127000000     3.249000000    -0.638000000
H    -2.868000000     3.314000000    -1.692000000
C    -2.423000000     3.935000000     0.319000000
O    -1.308000000     4.608000000    -0.074000000
C     0.018000000     4.025000000     0.111000000
H    -0.184000000     2.962000000     0.304000000
C     0.944000000     4.040000000    -1.118000000
C     2.316000000     4.062000000    -0.941000000
H     2.800000000     4.355000000    -0.012000000
C     0.341000000     3.961000000    -2.374000000
H    -0.743000000     3.979000000    -2.460000000
C     1.184000000     3.994000000    -3.493000000
O     0.757000000     4.205000000    -4.758000000
C     2.571000000     3.982000000    -3.327000000
H     3.208000000     4.320000000    -4.141000000
C     3.101000000     4.043000000    -2.086000000
O     4.516000000     4.312000000    -2.060000000
C     5.231000000     4.290000000    -0.887000000
C     5.541000000     3.036000000    -0.400000000
H     5.067000000     2.186000000    -0.883000000
C     5.848000000     5.463000000    -0.332000000
H     5.719000000     6.459000000    -0.747000000
C     6.724000000     5.291000000     0.730000000
H     7.293000000     6.140000000     1.101000000
C     7.065000000     4.035000000     1.230000000
H     7.760000000     3.960000000     2.062000000
C     6.446000000     2.914000000     0.693000000
O     6.926000000     1.696000000     1.141000000
C     6.098000000     0.729000000     1.662000000
C     6.548000000    -0.615000000     1.441000000
H     7.492000000    -0.761000000     0.922000000
C     5.758000000    -1.685000000     1.935000000
O     6.147000000    -2.957000000     1.687000000
C     5.348000000    -4.094000000     1.715000000
C     4.645000000    -4.408000000     0.503000000
H     4.694000000    -3.760000000    -0.368000000
C     5.268000000    -4.861000000     2.822000000
H     5.903000000    -4.705000000     3.690000000
C     4.442000000    -6.015000000     2.853000000
H     4.447000000    -6.700000000     3.698000000
C     3.613000000    -6.223000000     1.713000000
H     2.912000000    -7.053000000     1.742000000
C     3.795000000    -5.506000000     0.527000000
O     2.985000000    -5.759000000    -0.584000000
C     1.665000000    -5.451000000    -0.627000000
C     1.000000000    -5.989000000    -1.767000000
H     1.510000000    -6.711000000    -2.399000000
C    -0.349000000    -5.675000000    -1.902000000
O    -1.002000000    -6.077000000    -3.094000000
C    -2.184000000    -5.538000000    -3.518000000
C    -2.159000000    -4.480000000    -4.385000000
H    -1.242000000    -4.018000000    -4.742000000
C    -3.364000000    -6.136000000    -3.083000000
H    -3.367000000    -7.079000000    -2.541000000
C    -4.586000000    -5.586000000    -3.473000000
H    -5.512000000    -6.088000000    -3.204000000
C    -4.566000000    -4.519000000    -4.376000000
H    -5.457000000    -4.038000000    -4.771000000
C    -3.359000000    -3.924000000    -4.719000000
O    -3.376000000    -2.859000000    -5.569000000
C    -3.659000000    -1.566000000    -5.006000000
C    -3.528000000    -0.434000000    -5.858000000
H    -3.348000000    -0.481000000    -6.929000000
C    -3.586000000     0.887000000    -5.331000000
O    -3.295000000     1.908000000    -6.165000000
C    -2.599000000     2.993000000    -5.820000000
C    -3.219000000     4.203000000    -5.926000000
H    -4.264000000     4.272000000    -6.219000000
C    -2.476000000     5.398000000    -5.897000000
H    -2.924000000     6.367000000    -6.101000000
C    -1.124000000     5.403000000    -5.544000000
H    -0.565000000     6.333000000    -5.606000000
C    -0.554000000     4.204000000    -5.145000000
C    -1.254000000     2.960000000    -5.367000000
H    -0.752000000     2.010000000    -5.196000000
C     2.294000000     0.245000000    -0.782000000
H     3.316000000     0.614000000    -0.787000000
C     1.367000000     0.689000000     0.165000000
H     1.540000000     1.562000000     0.789000000
C     0.086000000     0.134000000     0.231000000
H    -0.655000000     0.451000000     0.975000000
C    -0.229000000    -0.914000000    -0.683000000
H    -1.186000000    -1.422000000    -0.598000000
C     0.683000000    -1.235000000    -1.667000000
H     0.364000000    -1.917000000    -2.452000000
C     1.931000000    -0.666000000    -1.768000000
C     2.788000000    -0.909000000    -2.905000000
O     2.460000000    -1.752000000    -3.723000000
O     3.929000000    -0.417000000    -3.036000000
O     4.447000000    -1.270000000    -5.785000000
H     4.189000000    -1.237000000    -4.864000000
H     4.417000000    -0.358000000    -6.075000000
O     6.262000000     4.044000000    -4.661000000
H     6.563000000     4.484000000    -3.866000000
H     5.998000000     3.172000000    -4.367000000
O     7.502000000    -5.614000000    -2.051000000
H     6.593000000    -5.854000000    -2.231000000
H     7.440000000    -4.899000000    -1.419000000
O     5.542000000    -3.855000000    -6.286000000
H     5.198000000    -2.972000000    -6.157000000
H     6.413000000    -3.834000000    -5.890000000
O     9.115000000     0.008000000    -1.342000000
H     8.272000000    -0.185000000    -1.752000000
H     9.199000000     0.960000000    -1.404000000
O     1.632000000    -3.015000000    -8.910000000
H     2.105000000    -3.519000000    -8.247000000
H     2.133000000    -2.205000000    -8.998000000
O     5.038000000     1.611000000    -4.310000000
H     4.701000000     0.989000000    -3.665000000
H     4.281000000     1.823000000    -4.856000000
O     4.909000000    -5.975000000    -3.134000000
H     4.812000000    -6.247000000    -4.047000000
H     4.169000000    -5.388000000    -2.979000000
O     2.533000000    -4.605000000    -3.996000000
H     2.502000000    -3.655000000    -3.889000000
H     2.041000000    -4.947000000    -3.250000000
O     2.925000000    -4.581000000    -6.955000000
H     2.680000000    -4.685000000    -6.035000000
H     3.877000000    -4.488000000    -6.940000000
O     7.491000000    -0.834000000    -7.515000000
H     6.887000000    -1.512000000    -7.211000000
H     8.282000000    -1.312000000    -7.762000000
O     2.476000000     1.718000000    -6.027000000
H     2.241000000     1.638000000    -6.952000000
H     1.902000000     2.407000000    -5.693000000
O     7.245000000    -3.260000000    -0.889000000
H     6.926000000    -2.543000000    -1.438000000
H     6.730000000    -3.194000000    -0.085000000
O     3.543000000    -0.943000000    -8.442000000
H     3.478000000    -1.223000000    -7.529000000
H     2.903000000    -0.235000000    -8.521000000
O    -0.584000000    -1.260000000    -7.805000000
H     0.224000000    -1.327000000    -7.296000000
H    -0.345000000    -0.728000000    -8.564000000
O     1.578000000    -0.990000000    -6.105000000
H     1.747000000    -1.268000000    -5.205000000
H     1.777000000    -0.053000000    -6.107000000
O     8.147000000    -0.352000000    -4.457000000
H     7.704000000    -0.483000000    -5.296000000
H     8.981000000    -0.813000000    -4.552000000
O     1.474000000     1.054000000    -8.764000000
H     0.567000000     1.358000000    -8.717000000
H     1.716000000     1.164000000    -9.684000000
O     6.534000000    -0.825000000    -2.141000000
H     5.599000000    -0.620000000    -2.158000000
H     6.825000000    -0.690000000    -3.042000000
