215
-1434.76892
C     3.056000000    -2.039000000     2.317000000
H     2.332000000    -2.848000000     2.381000000
C     2.958000000    -0.801000000     2.918000000
C     4.005000000     0.163000000     2.747000000
H     4.027000000     1.093000000     3.310000000
C     1.693000000    -0.449000000     3.774000000
O     1.257000000    -1.527000000     4.646000000
H     0.865000000    -0.353000000     3.056000000
O     1.777000000     0.742000000     4.412000000
C     0.828000000     1.707000000     4.231000000
C     1.155000000     2.617000000     3.289000000
H     2.158000000     2.763000000     2.895000000
C     0.316000000     3.681000000     2.953000000
O     0.749000000     4.577000000     2.017000000
C    -1.017000000     3.670000000     3.319000000
C    -2.102000000     4.605000000     2.803000000
H    -2.886000000     4.628000000     3.563000000
C    -2.639000000     4.105000000     1.476000000
C    -3.764000000     3.191000000     1.435000000
H    -4.227000000     2.923000000     2.381000000
H    -1.659000000     5.596000000     2.679000000
C    -1.430000000     2.586000000     4.145000000
H    -2.468000000     2.370000000     4.385000000
C    -0.503000000     1.633000000     4.606000000
C    -0.970000000     0.440000000     5.512000000
H    -1.909000000     0.766000000     5.963000000
H    -0.269000000     0.320000000     6.341000000
C    -1.105000000    -0.874000000     4.761000000
C    -2.423000000    -1.208000000     4.411000000
H    -3.297000000    -0.602000000     4.639000000
C    -0.087000000    -1.829000000     4.504000000
C    -0.438000000    -3.056000000     3.867000000
H     0.313000000    -3.748000000     3.497000000
C    -1.707000000    -3.219000000     3.423000000
O    -1.857000000    -4.281000000     2.495000000
C    -2.063000000    -4.024000000     1.060000000
C    -1.394000000    -5.005000000     0.190000000
C    -1.939000000    -5.375000000    -1.038000000
H    -2.821000000    -4.858000000    -1.408000000
C    -0.259000000    -5.687000000     0.618000000
H     0.209000000    -5.519000000     1.584000000
O    -3.460000000    -3.865000000     0.774000000
H    -1.621000000    -3.061000000     0.765000000
C    -2.745000000    -2.337000000     3.675000000
C    -4.154000000    -2.471000000     3.121000000
H    -4.809000000    -2.069000000     3.897000000
H    -4.398000000    -3.530000000     3.235000000
C    -4.278000000    -1.826000000     1.749000000
C    -4.768000000    -0.536000000     1.560000000
H    -5.277000000    -0.059000000     2.394000000
C    -3.887000000    -2.553000000     0.641000000
C    -3.801000000    -1.979000000    -0.630000000
H    -3.499000000    -2.545000000    -1.507000000
C    -4.182000000    -0.656000000    -0.750000000
O    -3.954000000    -0.103000000    -1.972000000
C    -2.964000000     0.907000000    -2.205000000
C    -2.298000000     0.683000000    -3.562000000
C    -1.809000000    -0.593000000    -3.771000000
H    -2.032000000    -1.369000000    -3.044000000
C    -1.904000000     1.694000000    -4.448000000
H    -2.245000000     2.709000000    -4.259000000
O    -3.522000000     2.239000000    -2.152000000
H    -2.185000000     0.903000000    -1.428000000
C    -4.658000000     0.071000000     0.312000000
C    -5.147000000     1.511000000     0.167000000
H    -5.879000000     1.631000000     0.968000000
H    -5.728000000     1.557000000    -0.756000000
C    -4.037000000     2.511000000     0.202000000
C    -3.364000000     2.931000000    -0.912000000
C    -2.415000000     3.901000000    -0.931000000
H    -2.070000000     4.237000000    -1.905000000
C    -2.006000000     4.485000000     0.280000000
O    -0.827000000     5.117000000     0.256000000
C     0.419000000     4.418000000     0.580000000
H     0.202000000     3.343000000     0.496000000
C     1.533000000     4.746000000    -0.415000000
C     2.868000000     4.646000000    -0.022000000
H     3.068000000     4.422000000     1.023000000
C     1.298000000     4.890000000    -1.819000000
H     0.260000000     4.986000000    -2.128000000
C     2.359000000     5.159000000    -2.662000000
O     2.219000000     5.375000000    -4.016000000
C     3.671000000     5.250000000    -2.189000000
H     4.546000000     5.518000000    -2.776000000
C     3.935000000     4.860000000    -0.885000000
O     5.242000000     4.910000000    -0.392000000
C     5.554000000     4.217000000     0.762000000
C     5.601000000     2.795000000     0.705000000
H     5.337000000     2.116000000    -0.101000000
C     6.316000000     4.852000000     1.731000000
H     6.617000000     5.890000000     1.611000000
C     6.695000000     4.176000000     2.883000000
H     7.272000000     4.641000000     3.679000000
C     6.568000000     2.756000000     2.945000000
H     7.044000000     2.228000000     3.767000000
C     6.034000000     2.078000000     1.872000000
O     6.137000000     0.739000000     1.771000000
C     5.040000000    -0.094000000     1.874000000
C     5.053000000    -1.347000000     1.259000000
H     5.708000000    -1.498000000     0.404000000
C     4.082000000    -2.324000000     1.442000000
O     4.160000000    -3.504000000     0.773000000
C     3.679000000    -4.725000000     1.307000000
C     2.875000000    -5.517000000     0.559000000
H     2.399000000    -5.130000000    -0.338000000
C     4.227000000    -5.191000000     2.464000000
H     4.888000000    -4.560000000     3.052000000
C     3.819000000    -6.468000000     2.965000000
H     4.330000000    -6.729000000     3.888000000
C     2.948000000    -7.296000000     2.198000000
H     2.642000000    -8.289000000     2.518000000
C     2.429000000    -6.761000000     1.015000000
O     1.478000000    -7.439000000     0.230000000
C     0.388000000    -6.726000000    -0.199000000
C    -0.147000000    -6.972000000    -1.473000000
H     0.452000000    -7.483000000    -2.222000000
C    -1.225000000    -6.232000000    -1.895000000
O    -1.580000000    -6.353000000    -3.164000000
C    -1.880000000    -5.409000000    -4.040000000
C    -1.022000000    -4.263000000    -4.067000000
H    -0.226000000    -4.232000000    -3.327000000
C    -2.948000000    -5.513000000    -4.878000000
H    -3.635000000    -6.355000000    -4.843000000
C    -3.291000000    -4.436000000    -5.683000000
H    -4.262000000    -4.435000000    -6.171000000
C    -2.412000000    -3.403000000    -5.834000000
H    -2.695000000    -2.578000000    -6.484000000
C    -1.355000000    -3.250000000    -4.963000000
O    -0.513000000    -2.188000000    -5.080000000
C    -0.991000000    -0.906000000    -4.843000000
C    -0.761000000     0.081000000    -5.774000000
H    -0.233000000    -0.116000000    -6.703000000
C    -1.077000000     1.390000000    -5.505000000
O    -0.680000000     2.378000000    -6.411000000
C    -0.362000000     3.645000000    -5.948000000
C    -1.205000000     4.668000000    -6.335000000
H    -2.068000000     4.392000000    -6.936000000
C    -1.032000000     5.893000000    -5.654000000
H    -1.786000000     6.674000000    -5.706000000
C     0.082000000     6.116000000    -4.843000000
H     0.292000000     7.074000000    -4.374000000
C     0.988000000     5.132000000    -4.612000000
C     0.730000000     3.858000000    -5.116000000
H     1.387000000     3.028000000    -4.866000000
C     2.249000000     0.547000000    -0.912000000
H     3.108000000     1.206000000    -1.009000000
C     1.242000000     0.903000000    -0.003000000
H     1.367000000     1.709000000     0.716000000
C     0.108000000     0.091000000     0.051000000
H    -0.669000000     0.394000000     0.733000000
C     0.066000000    -1.130000000    -0.721000000
H    -0.807000000    -1.776000000    -0.676000000
C     1.059000000    -1.337000000    -1.676000000
H     1.032000000    -2.170000000    -2.373000000
C     2.247000000    -0.561000000    -1.745000000
C     3.278000000    -0.710000000    -2.829000000
O     3.264000000    -1.760000000    -3.514000000
O     4.012000000     0.179000000    -3.167000000
O     4.678000000     3.017000000    -6.081000000
H     4.925000000     3.934000000    -5.960000000
H     4.262000000     2.993000000    -6.942000000
O     8.096000000     0.023000000    -4.963000000
H     7.199000000    -0.004000000    -4.629000000
H     8.449000000     0.850000000    -4.635000000
O     3.525000000    -4.204000000    -2.873000000
H     3.352000000    -3.266000000    -2.946000000
H     4.059000000    -4.409000000    -3.641000000
O     8.157000000    -4.795000000    -2.403000000
H     8.394000000    -4.202000000    -3.115000000
H     7.204000000    -4.727000000    -2.341000000
O     2.796000000    -1.861000000    -6.246000000
H     2.466000000    -1.842000000    -5.348000000
H     3.360000000    -1.090000000    -6.310000000
O     1.391000000    -0.790000000    -8.420000000
H     1.936000000    -0.722000000    -7.636000000
H     0.963000000     0.063000000    -8.490000000
O     4.692000000     0.344000000    -6.016000000
H     4.739000000     1.296000000    -5.935000000
H     4.449000000     0.040000000    -5.142000000
O     2.409000000    -6.682000000    -3.450000000
H     2.645000000    -7.317000000    -2.774000000
H     2.623000000    -5.832000000    -3.066000000
O     5.932000000    -4.056000000    -1.261000000
H     5.477000000    -3.400000000    -0.733000000
H     5.233000000    -4.616000000    -1.601000000
O     7.848000000    -2.931000000    -4.680000000
H     7.026000000    -3.281000000    -5.024000000
H     7.844000000    -2.010000000    -4.942000000
O     8.278000000     2.222000000    -2.823000000
H     7.335000000     2.159000000    -2.671000000
H     8.355000000     2.549000000    -3.719000000
O     8.067000000    -2.885000000     0.649000000
H     7.806000000    -2.868000000     1.570000000
H     7.572000000    -3.613000000     0.273000000
O     8.391000000    -0.365000000    -0.723000000
H     7.899000000    -0.608000000    -1.508000000
H     8.302000000    -1.119000000    -0.141000000
O     6.345000000    -0.835000000    -2.732000000
H     5.465000000    -0.536000000    -2.961000000
H     6.238000000    -1.765000000    -2.534000000
O     2.448000000    -4.116000000    -7.741000000
H     2.653000000    -3.337000000    -7.224000000
H     2.419000000    -3.802000000    -8.645000000
O     6.325000000    -0.560000000    -8.138000000
H     6.327000000     0.367000000    -8.377000000
H     5.731000000    -0.613000000    -7.389000000
O     0.347000000    -5.356000000    -6.635000000
H     0.273000000    -4.896000000    -5.799000000
H     1.068000000    -4.917000000    -7.086000000
O     5.797000000     2.124000000    -3.680000000
H     5.052000000     1.702000000    -3.253000000
H     5.410000000     2.620000000    -4.402000000
O     5.522000000    -3.738000000    -5.825000000
H     4.920000000    -3.029000000    -6.051000000
H     5.437000000    -4.363000000    -6.545000000
