215
-1451.61246
C     3.676000000    -2.475000000     1.992000000
H     2.825000000    -3.100000000     2.252000000
C     3.644000000    -1.216000000     2.629000000
C     4.622000000    -0.283000000     2.280000000
H     4.502000000     0.737000000     2.637000000
C     2.400000000    -0.789000000     3.444000000
O     1.949000000    -1.807000000     4.355000000
H     1.654000000    -0.601000000     2.657000000
O     2.684000000     0.419000000     4.171000000
C     1.694000000     1.396000000     4.119000000
C     1.949000000     2.440000000     3.242000000
H     2.892000000     2.626000000     2.733000000
C     1.003000000     3.425000000     2.998000000
O     1.320000000     4.409000000     2.028000000
C    -0.329000000     3.257000000     3.468000000
C    -1.363000000     4.350000000     3.257000000
H    -2.017000000     4.256000000     4.126000000
C    -2.134000000     4.066000000     2.024000000
C    -3.330000000     3.319000000     2.081000000
H    -3.657000000     2.992000000     3.065000000
H    -0.907000000     5.342000000     3.241000000
C    -0.513000000     2.241000000     4.449000000
H    -1.493000000     2.249000000     4.920000000
C     0.472000000     1.324000000     4.785000000
C     0.159000000     0.159000000     5.718000000
H    -0.644000000     0.471000000     6.390000000
H     0.942000000    -0.137000000     6.419000000
C    -0.279000000    -1.023000000     4.951000000
C    -1.615000000    -1.133000000     4.575000000
H    -2.305000000    -0.325000000     4.804000000
C     0.598000000    -1.966000000     4.404000000
C     0.134000000    -3.013000000     3.634000000
H     0.817000000    -3.684000000     3.119000000
C    -1.186000000    -3.137000000     3.309000000
O    -1.562000000    -4.188000000     2.433000000
C    -1.895000000    -3.780000000     1.063000000
C    -1.470000000    -4.956000000     0.097000000
C    -2.162000000    -5.155000000    -1.119000000
H    -3.101000000    -4.610000000    -1.157000000
C    -0.256000000    -5.533000000     0.268000000
H     0.365000000    -5.426000000     1.154000000
O    -3.312000000    -3.561000000     0.933000000
H    -1.346000000    -2.867000000     0.790000000
C    -2.095000000    -2.234000000     3.873000000
C    -3.550000000    -2.311000000     3.436000000
H    -4.172000000    -1.870000000     4.218000000
H    -3.862000000    -3.356000000     3.395000000
C    -3.841000000    -1.586000000     2.130000000
C    -4.298000000    -0.322000000     2.113000000
H    -4.285000000     0.218000000     3.056000000
C    -3.779000000    -2.264000000     0.953000000
C    -3.998000000    -1.560000000    -0.294000000
H    -3.917000000    -2.132000000    -1.215000000
C    -4.483000000    -0.274000000    -0.255000000
O    -4.664000000     0.392000000    -1.418000000
C    -3.522000000     1.219000000    -1.742000000
C    -3.198000000     1.039000000    -3.208000000
C    -2.853000000    -0.261000000    -3.550000000
H    -2.920000000    -1.042000000    -2.797000000
C    -2.891000000     2.084000000    -4.072000000
H    -3.077000000     3.089000000    -3.701000000
O    -3.771000000     2.652000000    -1.485000000
H    -2.632000000     0.921000000    -1.168000000
C    -4.672000000     0.398000000     0.947000000
C    -5.065000000     1.884000000     0.993000000
H    -5.581000000     1.999000000     1.949000000
H    -5.884000000     2.020000000     0.285000000
C    -3.923000000     2.828000000     0.915000000
C    -3.331000000     3.135000000    -0.326000000
C    -2.241000000     3.969000000    -0.391000000
H    -1.726000000     4.139000000    -1.333000000
C    -1.649000000     4.403000000     0.781000000
O    -0.434000000     5.076000000     0.587000000
C     0.681000000     4.269000000     0.715000000
H     0.359000000     3.247000000     0.466000000
C     1.634000000     4.606000000    -0.431000000
C     2.946000000     4.295000000    -0.212000000
H     3.262000000     4.034000000     0.795000000
C     1.112000000     4.858000000    -1.731000000
H     0.069000000     5.135000000    -1.869000000
C     2.013000000     4.786000000    -2.761000000
O     1.720000000     5.031000000    -4.083000000
C     3.310000000     4.537000000    -2.535000000
H     4.032000000     4.593000000    -3.346000000
C     3.838000000     4.372000000    -1.232000000
O     5.165000000     4.063000000    -1.125000000
C     5.759000000     3.535000000     0.043000000
C     5.906000000     2.127000000     0.099000000
H     5.474000000     1.506000000    -0.682000000
C     6.228000000     4.374000000     1.137000000
H     6.083000000     5.450000000     1.082000000
C     6.980000000     3.732000000     2.056000000
H     7.551000000     4.289000000     2.795000000
C     7.166000000     2.347000000     2.107000000
H     7.734000000     1.895000000     2.917000000
C     6.601000000     1.567000000     1.152000000
O     6.707000000     0.146000000     1.178000000
C     5.663000000    -0.629000000     1.399000000
C     5.728000000    -1.920000000     0.877000000
H     6.526000000    -2.201000000     0.195000000
C     4.748000000    -2.878000000     1.112000000
O     4.843000000    -4.032000000     0.420000000
C     4.217000000    -5.200000000     0.783000000
C     3.304000000    -5.804000000    -0.112000000
H     3.068000000    -5.357000000    -1.074000000
C     4.159000000    -5.657000000     2.119000000
H     4.746000000    -5.128000000     2.865000000
C     3.292000000    -6.675000000     2.515000000
H     3.305000000    -7.116000000     3.509000000
C     2.484000000    -7.281000000     1.556000000
H     1.819000000    -8.107000000     1.796000000
C     2.426000000    -6.783000000     0.281000000
O     1.394000000    -7.121000000    -0.514000000
C     0.226000000    -6.427000000    -0.701000000
C    -0.437000000    -6.587000000    -1.875000000
H    -0.078000000    -7.296000000    -2.617000000
C    -1.659000000    -5.886000000    -2.163000000
O    -2.363000000    -6.023000000    -3.346000000
C    -2.726000000    -4.924000000    -4.103000000
C    -1.955000000    -3.753000000    -4.174000000
H    -1.046000000    -3.615000000    -3.595000000
C    -3.945000000    -4.996000000    -4.770000000
H    -4.585000000    -5.845000000    -4.545000000
C    -4.408000000    -3.946000000    -5.619000000
H    -5.349000000    -4.121000000    -6.133000000
C    -3.628000000    -2.857000000    -5.761000000
H    -4.010000000    -2.009000000    -6.323000000
C    -2.451000000    -2.740000000    -4.980000000
O    -1.735000000    -1.660000000    -5.088000000
C    -2.337000000    -0.477000000    -4.811000000
C    -2.157000000     0.525000000    -5.737000000
H    -1.622000000     0.398000000    -6.675000000
C    -2.446000000     1.829000000    -5.348000000
O    -2.014000000     2.880000000    -6.200000000
C    -1.490000000     4.052000000    -5.714000000
C    -2.289000000     5.188000000    -5.592000000
H    -3.309000000     5.196000000    -5.968000000
C    -1.636000000     6.312000000    -5.081000000
H    -2.151000000     7.270000000    -5.074000000
C    -0.330000000     6.268000000    -4.545000000
H     0.107000000     7.134000000    -4.053000000
C     0.412000000     5.109000000    -4.596000000
C    -0.117000000     4.028000000    -5.264000000
H     0.431000000     3.089000000    -5.267000000
C     2.134000000     0.282000000    -1.087000000
H     3.147000000     0.669000000    -1.156000000
C     1.346000000     0.576000000     0.014000000
H     1.698000000     1.316000000     0.728000000
C     0.081000000    -0.039000000     0.066000000
H    -0.579000000     0.261000000     0.850000000
C    -0.432000000    -0.834000000    -1.003000000
H    -1.434000000    -1.255000000    -1.000000000
C     0.368000000    -1.097000000    -2.045000000
H     0.016000000    -1.832000000    -2.764000000
C     1.622000000    -0.580000000    -2.088000000
C     2.558000000    -0.880000000    -3.280000000
O     2.304000000    -1.841000000    -3.957000000
O     3.658000000    -0.416000000    -3.254000000
O     3.183000000     2.735000000    -5.673000000
H     2.828000000     3.621000000    -5.599000000
H     3.205000000     2.562000000    -6.614000000
O     6.324000000    -1.245000000    -5.470000000
H     5.452000000    -1.361000000    -5.847000000
H     6.621000000    -0.399000000    -5.807000000
O     3.965000000    -3.925000000    -3.395000000
H     3.418000000    -3.141000000    -3.351000000
H     4.218000000    -3.989000000    -4.316000000
O     7.829000000    -5.390000000    -4.364000000
H     7.738000000    -4.817000000    -5.125000000
H     6.952000000    -5.426000000    -3.984000000
O     4.454000000    -3.754000000    -6.161000000
H     3.872000000    -3.408000000    -6.837000000
H     5.334000000    -3.533000000    -6.466000000
O     0.617000000    -2.169000000    -9.861000000
H     0.175000000    -2.374000000    -9.036000000
H     1.370000000    -1.638000000    -9.603000000
O     3.364000000    -0.824000000    -6.123000000
H     3.459000000     0.033000000    -5.708000000
H     2.994000000    -1.382000000    -5.439000000
O     1.503000000    -5.589000000    -4.113000000
H     1.731000000    -5.270000000    -3.240000000
H     2.265000000    -5.376000000    -4.652000000
O     5.955000000    -5.127000000    -2.121000000
H     6.039000000    -4.684000000    -1.276000000
H     5.240000000    -4.668000000    -2.562000000
O     2.345000000     2.056000000    -8.351000000
H     2.344000000     1.099000000    -8.351000000
H     1.488000000     2.296000000    -8.705000000
O     7.790000000     3.123000000    -2.790000000
H     6.895000000     3.008000000    -3.110000000
H     8.014000000     2.279000000    -2.398000000
O     7.976000000     0.456000000    -1.778000000
H     7.171000000    -0.062000000    -1.779000000
H     8.500000000     0.085000000    -2.487000000
O     6.074000000    -1.488000000    -2.557000000
H     5.119000000    -1.425000000    -2.568000000
H     6.348000000    -1.128000000    -3.401000000
O     5.039000000    -0.944000000    -8.201000000
H     4.964000000    -0.111000000    -8.666000000
H     4.377000000    -0.895000000    -7.512000000
O     0.528000000    -2.969000000    -6.674000000
H     0.044000000    -3.244000000    -5.895000000
H     0.812000000    -2.077000000    -6.477000000
O     7.084000000     1.537000000    -6.382000000
H     6.290000000     1.964000000    -6.704000000
H     6.975000000     1.513000000    -5.432000000
O    -0.216000000    -6.706000000    -5.969000000
H     0.385000000    -7.131000000    -6.581000000
H     0.342000000    -6.416000000    -5.247000000
O     5.375000000     1.826000000    -4.183000000
H     4.834000000     1.153000000    -3.770000000
H     4.753000000     2.501000000    -4.454000000
O     4.356000000    -6.789000000    -6.348000000
H     4.404000000    -5.835000000    -6.403000000
H     4.994000000    -7.099000000    -6.991000000
