215
-1468.63183
C     4.012000000    -1.370000000     2.169000000
H     3.288000000    -2.178000000     2.103000000
C     3.618000000    -0.285000000     2.933000000
C     4.430000000     0.837000000     3.037000000
H     4.167000000     1.645000000     3.715000000
C     2.190000000    -0.273000000     3.479000000
O     1.968000000    -1.485000000     4.167000000
H     1.476000000    -0.223000000     2.643000000
O     1.968000000     0.823000000     4.304000000
C     0.830000000     1.570000000     4.215000000
C     0.932000000     2.742000000     3.460000000
H     1.862000000     3.135000000     3.059000000
C    -0.218000000     3.470000000     3.285000000
O    -0.126000000     4.481000000     2.388000000
C    -1.451000000     2.981000000     3.653000000
C    -2.706000000     3.693000000     3.160000000
H    -3.566000000     3.622000000     3.831000000
C    -3.174000000     3.120000000     1.810000000
C    -4.076000000     2.063000000     1.785000000
H    -4.313000000     1.498000000     2.683000000
H    -2.589000000     4.755000000     2.938000000
C    -1.514000000     1.858000000     4.490000000
H    -2.439000000     1.442000000     4.881000000
C    -0.383000000     1.137000000     4.785000000
C    -0.401000000    -0.196000000     5.532000000
H    -1.214000000    -0.278000000     6.256000000
H     0.488000000    -0.317000000     6.154000000
C    -0.506000000    -1.304000000     4.564000000
C    -1.683000000    -1.780000000     4.179000000
H    -2.577000000    -1.271000000     4.532000000
C     0.660000000    -1.986000000     4.029000000
C     0.569000000    -3.096000000     3.184000000
H     1.400000000    -3.676000000     2.791000000
C    -0.685000000    -3.535000000     2.834000000
O    -0.865000000    -4.607000000     1.946000000
C    -1.307000000    -4.232000000     0.622000000
C    -0.544000000    -4.976000000    -0.453000000
C    -1.106000000    -5.305000000    -1.701000000
H    -2.145000000    -5.070000000    -1.918000000
C     0.817000000    -5.199000000    -0.265000000
H     1.242000000    -5.038000000     0.722000000
O    -2.717000000    -4.276000000     0.375000000
H    -1.052000000    -3.166000000     0.533000000
C    -1.844000000    -2.844000000     3.309000000
C    -3.237000000    -3.328000000     2.970000000
H    -3.783000000    -3.178000000     3.903000000
H    -3.257000000    -4.411000000     2.831000000
C    -3.735000000    -2.593000000     1.727000000
C    -4.497000000    -1.454000000     1.812000000
H    -4.615000000    -0.814000000     2.682000000
C    -3.483000000    -3.128000000     0.458000000
C    -3.843000000    -2.564000000    -0.720000000
H    -3.667000000    -2.893000000    -1.741000000
C    -4.506000000    -1.343000000    -0.609000000
O    -4.603000000    -0.708000000    -1.811000000
C    -3.728000000     0.408000000    -2.105000000
C    -2.875000000     0.281000000    -3.406000000
C    -3.131000000    -0.794000000    -4.217000000
H    -3.979000000    -1.464000000    -4.102000000
C    -1.895000000     1.217000000    -3.777000000
H    -1.743000000     2.059000000    -3.107000000
O    -4.405000000     1.654000000    -1.930000000
H    -2.986000000     0.407000000    -1.292000000
C    -4.975000000    -0.833000000     0.607000000
C    -5.622000000     0.572000000     0.570000000
H    -6.355000000     0.616000000     1.378000000
H    -6.246000000     0.591000000    -0.326000000
C    -4.678000000     1.707000000     0.557000000
C    -4.106000000     2.229000000    -0.665000000
C    -3.100000000     3.201000000    -0.629000000
H    -2.592000000     3.559000000    -1.520000000
C    -2.641000000     3.598000000     0.630000000
O    -1.603000000     4.554000000     0.633000000
C    -0.306000000     4.083000000     1.045000000
H    -0.288000000     2.996000000     0.871000000
C     0.763000000     4.705000000     0.174000000
C     2.089000000     4.789000000     0.526000000
H     2.424000000     4.352000000     1.463000000
C     0.381000000     5.194000000    -1.075000000
H    -0.663000000     5.163000000    -1.377000000
C     1.364000000     5.680000000    -1.938000000
O     0.995000000     6.103000000    -3.200000000
C     2.645000000     5.914000000    -1.515000000
H     3.323000000     6.410000000    -2.205000000
C     3.030000000     5.430000000    -0.274000000
O     4.355000000     5.501000000     0.089000000
C     4.905000000     5.022000000     1.290000000
C     5.325000000     3.722000000     1.299000000
H     5.161000000     3.074000000     0.442000000
C     5.052000000     5.857000000     2.372000000
H     4.759000000     6.902000000     2.317000000
C     5.696000000     5.397000000     3.534000000
H     6.050000000     6.051000000     4.327000000
C     6.121000000     4.034000000     3.585000000
H     6.681000000     3.733000000     4.466000000
C     5.961000000     3.192000000     2.431000000
O     6.526000000     1.946000000     2.331000000
C     5.621000000     0.915000000     2.296000000
C     5.921000000    -0.146000000     1.427000000
H     6.752000000     0.002000000     0.743000000
C     5.156000000    -1.282000000     1.335000000
O     5.511000000    -2.220000000     0.500000000
C     5.011000000    -3.494000000     0.631000000
C     4.178000000    -4.121000000    -0.327000000
H     3.860000000    -3.601000000    -1.227000000
C     5.263000000    -4.188000000     1.827000000
H     5.956000000    -3.656000000     2.474000000
C     4.921000000    -5.571000000     1.903000000
H     5.262000000    -6.220000000     2.705000000
C     4.119000000    -6.183000000     0.968000000
H     3.827000000    -7.230000000     0.961000000
C     3.726000000    -5.396000000    -0.086000000
O     2.923000000    -6.029000000    -1.042000000
C     1.578000000    -5.821000000    -1.222000000
C     0.967000000    -6.199000000    -2.425000000
H     1.606000000    -6.652000000    -3.179000000
C    -0.334000000    -5.951000000    -2.713000000
O    -0.895000000    -6.128000000    -4.073000000
C    -1.931000000    -5.347000000    -4.504000000
C    -1.570000000    -4.119000000    -5.151000000
H    -0.553000000    -3.777000000    -5.326000000
C    -3.181000000    -5.824000000    -4.522000000
H    -3.392000000    -6.831000000    -4.169000000
C    -4.214000000    -5.057000000    -5.068000000
H    -5.271000000    -5.311000000    -5.085000000
C    -3.883000000    -3.835000000    -5.612000000
H    -4.634000000    -3.135000000    -5.969000000
C    -2.619000000    -3.353000000    -5.564000000
O    -2.352000000    -2.143000000    -6.057000000
C    -2.253000000    -1.019000000    -5.306000000
C    -1.162000000    -0.170000000    -5.593000000
H    -0.397000000    -0.282000000    -6.358000000
C    -1.011000000     0.968000000    -4.831000000
O    -0.036000000     1.878000000    -5.253000000
C    -0.284000000     3.214000000    -5.167000000
C    -1.081000000     3.895000000    -6.083000000
H    -1.647000000     3.329000000    -6.819000000
C    -1.277000000     5.232000000    -6.057000000
H    -1.996000000     5.613000000    -6.777000000
C    -0.539000000     6.004000000    -5.116000000
H    -0.745000000     7.061000000    -4.967000000
C     0.304000000     5.353000000    -4.214000000
C     0.444000000     3.967000000    -4.269000000
H     1.153000000     3.487000000    -3.599000000
C     2.035000000     0.697000000    -1.422000000
H     2.913000000     1.329000000    -1.527000000
C     1.184000000     0.844000000    -0.318000000
H     1.438000000     1.498000000     0.513000000
C    -0.041000000     0.155000000    -0.202000000
H    -0.713000000     0.313000000     0.628000000
C    -0.366000000    -0.739000000    -1.198000000
H    -1.342000000    -1.214000000    -1.144000000
C     0.474000000    -0.924000000    -2.332000000
H     0.232000000    -1.691000000    -3.063000000
C     1.628000000    -0.192000000    -2.433000000
C     2.436000000    -0.267000000    -3.685000000
O     2.118000000    -1.035000000    -4.615000000
O     3.531000000     0.327000000    -3.693000000
O     2.941000000    -0.067000000    -7.052000000
H     3.889000000    -0.135000000    -6.944000000
H     2.589000000    -0.193000000    -6.170000000
O     5.476000000     0.969000000    -7.409000000
H     4.883000000     1.592000000    -7.830000000
H     6.208000000     0.885000000    -8.020000000
O     2.811000000    -5.276000000    -5.595000000
H     3.338000000    -4.618000000    -5.143000000
H     3.347000000    -6.069000000    -5.574000000
O     1.620000000    -2.962000000    -6.561000000
H     1.712000000    -2.383000000    -5.805000000
H     2.116000000    -3.746000000    -6.324000000
O     5.155000000    -2.467000000    -7.407000000
H     5.657000000    -1.697000000    -7.140000000
H     5.810000000    -3.159000000    -7.500000000
O    -0.416000000    -4.024000000    -8.598000000
H    -1.149000000    -3.470000000    -8.867000000
H     0.113000000    -3.463000000    -8.030000000
O     3.561000000     2.920000000    -4.095000000
H     3.275000000     3.098000000    -4.991000000
H     3.448000000     1.975000000    -3.990000000
O     3.650000000     4.474000000    -6.812000000
H     4.046000000     4.116000000    -7.606000000
H     2.972000000     5.070000000    -7.130000000
O     1.059000000    -0.799000000    -8.654000000
H     1.794000000    -0.639000000    -8.062000000
H     0.551000000    -1.487000000    -8.223000000
O     6.589000000    -3.259000000    -3.691000000
H     5.775000000    -3.092000000    -4.166000000
H     7.209000000    -3.531000000    -4.367000000
O     5.751000000     0.865000000    -4.822000000
H     4.959000000     0.873000000    -4.285000000
H     5.440000000     0.666000000    -5.705000000
O     7.462000000     3.113000000    -5.123000000
H     7.098000000     2.228000000    -5.139000000
H     6.894000000     3.595000000    -4.522000000
O     4.141000000    -2.838000000    -4.968000000
H     4.264000000    -2.653000000    -5.899000000
H     3.480000000    -2.206000000    -4.684000000
O     3.419000000    -2.744000000    -9.575000000
H     4.147000000    -2.697000000    -8.955000000
H     2.807000000    -2.071000000    -9.276000000
O     5.571000000    -0.422000000    -2.031000000
H     4.857000000    -0.138000000    -1.459000000
H     5.239000000    -0.280000000    -2.917000000
O     8.003000000    -1.517000000    -2.062000000
H     7.214000000    -1.027000000    -1.829000000
H     7.676000000    -2.298000000    -2.509000000
O    -0.131000000     1.657000000    -8.940000000
H     0.481000000     0.927000000    -9.039000000
H     0.429000000     2.424000000    -8.822000000
O     5.521000000     4.118000000    -2.270000000
H     4.780000000     3.790000000    -2.779000000
H     5.142000000     4.363000000    -1.426000000
O     8.591000000    -0.041000000    -4.800000000
H     7.661000000     0.167000000    -4.710000000
H     8.883000000    -0.228000000    -3.908000000
