215
-1453.68800
C    -5.000000000    -0.210000000    -2.505000000
H    -4.840000000     0.777000000    -2.931000000
C    -4.723000000    -0.489000000    -1.118000000
C    -4.790000000    -1.811000000    -0.630000000
H    -4.540000000    -1.983000000     0.413000000
C    -4.320000000     0.622000000    -0.195000000
O    -4.623000000     1.910000000    -0.680000000
H    -3.230000000     0.637000000    -0.053000000
O    -4.887000000     0.607000000     1.159000000
C    -4.042000000     0.900000000     2.230000000
C    -3.564000000    -0.167000000     3.022000000
H    -3.793000000    -1.210000000     2.820000000
C    -2.629000000     0.117000000     4.039000000
O    -2.006000000    -0.935000000     4.572000000
C    -2.249000000     1.414000000     4.267000000
C    -1.080000000     1.840000000     5.114000000
H    -1.175000000     2.872000000     5.458000000
C     0.313000000     1.778000000     4.445000000
C     0.996000000     2.861000000     3.837000000
H     0.512000000     3.834000000     3.870000000
H    -1.147000000     1.156000000     5.963000000
C    -2.822000000     2.516000000     3.575000000
H    -2.450000000     3.510000000     3.806000000
C    -3.640000000     2.229000000     2.485000000
C    -4.060000000     3.460000000     1.696000000
H    -3.977000000     4.390000000     2.262000000
H    -5.125000000     3.346000000     1.481000000
C    -3.252000000     3.507000000     0.457000000
C    -2.162000000     4.389000000     0.359000000
H    -1.722000000     4.923000000     1.197000000
C    -3.633000000     2.835000000    -0.733000000
C    -2.823000000     2.796000000    -1.860000000
H    -3.085000000     2.118000000    -2.668000000
C    -1.696000000     3.577000000    -1.901000000
O    -0.916000000     3.574000000    -3.061000000
C     0.360000000     2.849000000    -2.980000000
C     0.571000000     1.906000000    -4.157000000
C     1.791000000     1.213000000    -4.313000000
H     2.553000000     1.442000000    -3.573000000
C    -0.491000000     1.516000000    -4.988000000
H    -1.474000000     1.944000000    -4.810000000
O     1.412000000     3.854000000    -2.726000000
H     0.340000000     2.234000000    -2.069000000
C    -1.413000000     4.433000000    -0.808000000
C    -0.257000000     5.385000000    -0.835000000
H    -0.422000000     6.219000000    -0.149000000
H    -0.011000000     5.807000000    -1.812000000
C     1.096000000     4.749000000    -0.503000000
C     1.507000000     4.765000000     0.818000000
H     0.918000000     5.317000000     1.546000000
C     1.834000000     3.975000000    -1.401000000
C     3.055000000     3.462000000    -1.084000000
H     3.767000000     2.913000000    -1.696000000
C     3.407000000     3.404000000     0.279000000
O     4.399000000     2.499000000     0.624000000
C     3.990000000     1.235000000     1.178000000
C     4.743000000    -0.001000000     0.729000000
C     5.422000000    -0.008000000    -0.519000000
H     5.372000000     0.880000000    -1.144000000
C     4.709000000    -1.150000000     1.519000000
H     4.013000000    -1.262000000     2.347000000
O     4.055000000     1.221000000     2.621000000
H     2.930000000     1.025000000     0.976000000
C     2.703000000     4.087000000     1.275000000
C     2.954000000     3.928000000     2.793000000
H     2.785000000     4.876000000     3.306000000
H     4.013000000     3.791000000     3.019000000
C     2.313000000     2.657000000     3.302000000
C     2.872000000     1.419000000     3.397000000
C     2.210000000     0.380000000     3.973000000
H     2.656000000    -0.605000000     4.084000000
C     0.942000000     0.581000000     4.476000000
O     0.327000000    -0.531000000     4.915000000
C    -0.639000000    -1.164000000     4.083000000
H    -0.433000000    -0.649000000     3.133000000
C    -0.537000000    -2.683000000     3.930000000
C    -1.494000000    -3.447000000     3.221000000
H    -2.352000000    -2.992000000     2.731000000
C     0.574000000    -3.301000000     4.402000000
H     1.245000000    -2.758000000     5.063000000
C     0.881000000    -4.603000000     4.036000000
O     2.059000000    -5.199000000     4.532000000
C    -0.014000000    -5.319000000     3.327000000
H     0.210000000    -6.362000000     3.117000000
C    -1.203000000    -4.746000000     2.872000000
O    -1.937000000    -5.447000000     1.966000000
C    -3.213000000    -5.239000000     1.624000000
C    -3.572000000    -4.942000000     0.332000000
H    -2.799000000    -4.894000000    -0.430000000
C    -4.229000000    -5.371000000     2.514000000
H    -3.902000000    -5.706000000     3.496000000
C    -5.569000000    -5.058000000     2.313000000
H    -6.374000000    -5.164000000     3.035000000
C    -5.855000000    -4.653000000     0.979000000
H    -6.820000000    -4.256000000     0.672000000
C    -4.907000000    -4.608000000     0.072000000
O    -5.136000000    -4.159000000    -1.184000000
C    -5.051000000    -2.831000000    -1.536000000
C    -5.279000000    -2.498000000    -2.896000000
H    -5.442000000    -3.300000000    -3.612000000
C    -5.344000000    -1.224000000    -3.369000000
O    -5.564000000    -0.953000000    -4.726000000
C    -4.820000000    -0.135000000    -5.503000000
C    -3.451000000    -0.398000000    -5.607000000
H    -2.984000000    -1.134000000    -4.958000000
C    -5.459000000     0.810000000    -6.292000000
H    -6.489000000     1.039000000    -6.029000000
C    -4.769000000     1.504000000    -7.244000000
H    -5.361000000     2.218000000    -7.811000000
C    -3.407000000     1.288000000    -7.319000000
H    -2.886000000     1.839000000    -8.098000000
C    -2.722000000     0.434000000    -6.476000000
O    -1.372000000     0.077000000    -6.680000000
C    -0.329000000     0.535000000    -5.928000000
C     0.921000000    -0.042000000    -6.139000000
H     1.104000000    -0.807000000    -6.889000000
C     2.005000000     0.334000000    -5.338000000
O     3.272000000    -0.137000000    -5.662000000
C     4.414000000     0.146000000    -4.912000000
C     4.915000000    -0.667000000    -3.888000000
H     4.436000000    -1.628000000    -3.721000000
C     5.063000000     1.287000000    -5.326000000
H     4.623000000     1.916000000    -6.096000000
C     6.167000000     1.687000000    -4.583000000
H     6.659000000     2.626000000    -4.825000000
C     6.658000000     0.868000000    -3.589000000
H     7.572000000     1.087000000    -3.043000000
C     6.020000000    -0.323000000    -3.224000000
O     6.524000000    -1.204000000    -2.258000000
C     6.116000000    -1.155000000    -0.988000000
C     6.063000000    -2.288000000    -0.206000000
H     6.340000000    -3.293000000    -0.514000000
C     5.431000000    -2.288000000     1.077000000
O     5.539000000    -3.481000000     1.745000000
C     5.068000000    -3.709000000     3.039000000
C     5.885000000    -3.672000000     4.178000000
H     6.877000000    -3.264000000     4.004000000
C     5.360000000    -3.968000000     5.441000000
H     5.995000000    -3.810000000     6.309000000
C     4.075000000    -4.488000000     5.557000000
H     3.698000000    -4.815000000     6.523000000
C     3.262000000    -4.587000000     4.382000000
C     3.769000000    -4.305000000     3.091000000
H     3.175000000    -4.611000000     2.234000000
C     0.521000000    -2.718000000     0.169000000
H     0.101000000    -3.623000000     0.602000000
C    -0.287000000    -1.584000000     0.425000000
H    -1.125000000    -1.673000000     1.111000000
C     0.162000000    -0.325000000    -0.017000000
H    -0.285000000     0.652000000     0.296000000
C     1.366000000    -0.225000000    -0.730000000
H     1.700000000     0.723000000    -1.143000000
C     2.066000000    -1.384000000    -1.048000000
H     3.019000000    -1.324000000    -1.568000000
C     1.674000000    -2.653000000    -0.600000000
C     2.391000000    -3.901000000    -0.990000000
O     3.132000000    -3.868000000    -1.934000000
O     2.020000000    -4.942000000    -0.455000000
O     3.145000000    -7.633000000    -3.705000000
H     3.389000000    -8.558000000    -3.675000000
H     3.335000000    -7.307000000    -2.825000000
O     2.221000000    -6.833000000     1.244000000
H     2.131000000    -6.024000000     0.739000000
H     3.117000000    -7.123000000     1.075000000
O    -2.617000000    -5.984000000    -3.057000000
H    -1.719000000    -6.142000000    -2.766000000
H    -2.689000000    -5.030000000    -3.102000000
O     4.047000000    -2.960000000    -6.624000000
H     3.350000000    -3.167000000    -6.002000000
H     4.334000000    -2.081000000    -6.378000000
O     0.470000000    -4.556000000    -5.577000000
H    -0.145000000    -4.737000000    -6.288000000
H     0.282000000    -5.228000000    -4.921000000
O     6.882000000    -6.040000000     1.088000000
H     6.556000000    -5.140000000     1.095000000
H     6.106000000    -6.578000000     1.244000000
O     4.674000000    -6.028000000    -1.626000000
H     5.420000000    -5.612000000    -2.058000000
H     4.019000000    -5.332000000    -1.558000000
O     4.924000000    -8.032000000     1.859000000
H     4.824000000    -8.978000000     1.964000000
H     5.174000000    -7.720000000     2.728000000
O     0.223000000    -8.541000000     1.045000000
H     0.898000000    -7.935000000     1.352000000
H     0.702000000    -9.196000000     0.538000000
O     2.681000000    -6.794000000    -6.413000000
H     2.948000000    -7.029000000    -5.524000000
H     2.085000000    -6.054000000    -6.296000000
O     8.251000000    -3.843000000    -3.447000000
H     7.311000000    -3.760000000    -3.284000000
H     8.460000000    -4.741000000    -3.190000000
O     4.526000000    -8.644000000    -0.895000000
H     4.911000000    -9.022000000    -0.104000000
H     4.720000000    -7.709000000    -0.832000000
O     6.186000000    -7.982000000    -3.800000000
H     5.654000000    -7.288000000    -4.190000000
H     5.556000000    -8.663000000    -3.564000000
O    -1.319000000    -1.115000000    -2.876000000
H    -0.582000000    -0.566000000    -3.145000000
H    -1.121000000    -1.354000000    -1.970000000
O    -0.366000000    -6.630000000    -0.968000000
H     0.331000000    -6.032000000    -0.700000000
H    -0.395000000    -7.291000000    -0.276000000
O     5.634000000    -3.896000000    -3.152000000
H     4.786000000    -3.854000000    -2.710000000
H     5.500000000    -4.516000000    -3.869000000
O     0.340000000    -6.558000000    -3.645000000
H     0.196000000    -6.552000000    -2.699000000
H     1.212000000    -6.940000000    -3.752000000
O    -1.750000000    -3.537000000    -3.934000000
H    -1.607000000    -2.647000000    -3.613000000
H    -0.969000000    -3.733000000    -4.453000000
O     2.544000000    -3.254000000    -4.454000000
H     1.791000000    -3.790000000    -4.703000000
H     2.839000000    -3.627000000    -3.623000000
