215
-1475.52618
C     4.196000000    -0.862000000     2.067000000
H     3.546000000    -1.727000000     2.169000000
C     3.675000000     0.319000000     2.614000000
C     4.454000000     1.480000000     2.507000000
H     4.188000000     2.401000000     3.020000000
C     2.376000000     0.305000000     3.348000000
O     2.153000000    -0.793000000     4.221000000
H     1.660000000     0.186000000     2.522000000
O     2.249000000     1.536000000     4.114000000
C     1.041000000     2.235000000     4.033000000
C     1.092000000     3.287000000     3.106000000
H     2.043000000     3.638000000     2.713000000
C    -0.086000000     3.972000000     2.782000000
O     0.037000000     4.892000000     1.730000000
C    -1.345000000     3.547000000     3.234000000
C    -2.641000000     4.138000000     2.830000000
H    -3.348000000     4.086000000     3.660000000
C    -3.232000000     3.493000000     1.599000000
C    -4.101000000     2.430000000     1.740000000
H    -4.298000000     2.074000000     2.748000000
H    -2.645000000     5.228000000     2.764000000
C    -1.314000000     2.473000000     4.222000000
H    -2.273000000     2.109000000     4.582000000
C    -0.133000000     1.804000000     4.532000000
C    -0.195000000     0.637000000     5.509000000
H    -0.872000000     0.811000000     6.348000000
H     0.753000000     0.512000000     6.038000000
C    -0.231000000    -0.725000000     4.862000000
C    -1.495000000    -1.272000000     4.724000000
H    -2.330000000    -0.755000000     5.189000000
C     0.868000000    -1.324000000     4.189000000
C     0.688000000    -2.390000000     3.368000000
H     1.523000000    -2.834000000     2.833000000
C    -0.557000000    -3.008000000     3.327000000
O    -0.572000000    -4.040000000     2.462000000
C    -1.159000000    -3.900000000     1.115000000
C    -0.361000000    -4.751000000     0.182000000
C    -1.075000000    -5.343000000    -0.903000000
H    -2.161000000    -5.393000000    -0.913000000
C     1.003000000    -4.779000000     0.199000000
H     1.580000000    -4.185000000     0.904000000
O    -2.591000000    -4.297000000     1.210000000
H    -1.098000000    -2.856000000     0.775000000
C    -1.669000000    -2.419000000     3.956000000
C    -3.083000000    -2.915000000     3.655000000
H    -3.780000000    -2.583000000     4.428000000
H    -3.080000000    -4.003000000     3.751000000
C    -3.562000000    -2.482000000     2.336000000
C    -4.326000000    -1.359000000     2.248000000
H    -4.578000000    -0.754000000     3.116000000
C    -3.435000000    -3.254000000     1.174000000
C    -3.972000000    -2.788000000    -0.061000000
H    -3.645000000    -3.322000000    -0.949000000
C    -4.609000000    -1.612000000    -0.153000000
O    -4.736000000    -1.067000000    -1.341000000
C    -3.718000000    -0.133000000    -1.643000000
C    -3.034000000    -0.463000000    -2.993000000
C    -3.400000000    -1.660000000    -3.661000000
H    -4.256000000    -2.262000000    -3.370000000
C    -1.971000000     0.330000000    -3.512000000
H    -1.564000000     1.141000000    -2.913000000
O    -4.271000000     1.141000000    -1.672000000
H    -2.945000000    -0.194000000    -0.863000000
C    -4.750000000    -0.846000000     0.995000000
C    -5.491000000     0.477000000     0.933000000
H    -6.101000000     0.484000000     1.839000000
H    -6.313000000     0.427000000     0.216000000
C    -4.616000000     1.721000000     0.652000000
C    -4.000000000     1.953000000    -0.570000000
C    -3.152000000     3.074000000    -0.778000000
H    -2.889000000     3.392000000    -1.784000000
C    -2.743000000     3.829000000     0.330000000
O    -1.745000000     4.749000000     0.166000000
C    -0.339000000     4.312000000     0.431000000
H    -0.383000000     3.216000000     0.517000000
C     0.664000000     4.704000000    -0.589000000
C     1.949000000     5.092000000    -0.285000000
H     2.389000000     4.947000000     0.699000000
C     0.255000000     4.725000000    -1.919000000
H    -0.788000000     4.586000000    -2.190000000
C     1.183000000     5.177000000    -2.887000000
O     0.807000000     5.412000000    -4.167000000
C     2.483000000     5.588000000    -2.502000000
H     3.217000000     5.878000000    -3.249000000
C     2.861000000     5.523000000    -1.202000000
O     4.164000000     5.840000000    -0.890000000
C     4.781000000     5.477000000     0.266000000
C     5.343000000     4.210000000     0.321000000
H     5.404000000     3.551000000    -0.542000000
C     4.782000000     6.321000000     1.438000000
H     4.358000000     7.319000000     1.360000000
C     5.397000000     5.922000000     2.576000000
H     5.390000000     6.511000000     3.490000000
C     6.090000000     4.699000000     2.635000000
H     6.634000000     4.368000000     3.517000000
C     5.980000000     3.801000000     1.553000000
O     6.518000000     2.569000000     1.719000000
C     5.682000000     1.432000000     1.768000000
C     6.141000000     0.302000000     1.167000000
H     7.086000000     0.305000000     0.631000000
C     5.338000000    -0.860000000     1.264000000
O     5.928000000    -2.035000000     0.697000000
C     5.295000000    -3.259000000     0.863000000
C     4.416000000    -3.729000000    -0.086000000
H     4.217000000    -3.151000000    -0.985000000
C     5.433000000    -3.960000000     2.059000000
H     6.054000000    -3.541000000     2.846000000
C     4.847000000    -5.203000000     2.254000000
H     4.969000000    -5.801000000     3.154000000
C     4.006000000    -5.720000000     1.300000000
H     3.565000000    -6.713000000     1.325000000
C     3.788000000    -5.003000000     0.126000000
O     3.063000000    -5.481000000    -0.901000000
C     1.677000000    -5.500000000    -0.755000000
C     1.004000000    -6.098000000    -1.823000000
H     1.528000000    -6.537000000    -2.669000000
C    -0.362000000    -5.987000000    -1.932000000
O    -0.907000000    -6.452000000    -3.116000000
C    -2.071000000    -5.946000000    -3.642000000
C    -1.990000000    -4.722000000    -4.242000000
H    -1.015000000    -4.241000000    -4.265000000
C    -3.247000000    -6.772000000    -3.762000000
H    -3.232000000    -7.751000000    -3.291000000
C    -4.354000000    -6.269000000    -4.394000000
H    -5.297000000    -6.806000000    -4.441000000
C    -4.297000000    -5.012000000    -4.988000000
H    -5.155000000    -4.693000000    -5.574000000
C    -3.112000000    -4.223000000    -4.908000000
O    -3.012000000    -3.063000000    -5.639000000
C    -2.709000000    -1.951000000    -4.902000000
C    -1.710000000    -1.062000000    -5.381000000
H    -1.207000000    -1.212000000    -6.333000000
C    -1.304000000     0.027000000    -4.648000000
O    -0.295000000     0.776000000    -5.121000000
C    -0.387000000     2.080000000    -5.433000000
C    -0.981000000     2.526000000    -6.597000000
H    -1.519000000     1.807000000    -7.210000000
C    -1.111000000     3.853000000    -6.906000000
H    -1.662000000     4.280000000    -7.740000000
C    -0.474000000     4.781000000    -6.119000000
H    -0.433000000     5.847000000    -6.326000000
C     0.168000000     4.384000000    -4.942000000
C     0.237000000     3.039000000    -4.616000000
H     0.724000000     2.630000000    -3.735000000
C     2.365000000     0.897000000    -1.110000000
H     3.284000000     1.462000000    -0.978000000
C     1.406000000     1.028000000    -0.123000000
H     1.430000000     1.819000000     0.622000000
C     0.267000000     0.230000000    -0.146000000
H    -0.485000000     0.319000000     0.631000000
C     0.164000000    -0.736000000    -1.116000000
H    -0.662000000    -1.443000000    -1.116000000
C     1.140000000    -0.795000000    -2.127000000
H     0.950000000    -1.357000000    -3.038000000
C     2.260000000    -0.026000000    -2.135000000
C     3.269000000    -0.033000000    -3.243000000
O     3.021000000    -0.490000000    -4.348000000
O     4.274000000     0.642000000    -3.079000000
O     2.376000000     1.011000000    -6.439000000
H     2.655000000     1.882000000    -6.156000000
H     2.722000000     0.420000000    -5.771000000
O     3.607000000    -1.238000000    -7.916000000
H     2.922000000    -0.623000000    -7.653000000
H     3.131000000    -1.993000000    -8.262000000
O     4.386000000    -3.655000000    -5.877000000
H     4.793000000    -3.100000000    -5.212000000
H     4.417000000    -3.130000000    -6.677000000
O     1.229000000    -2.573000000    -5.424000000
H     1.648000000    -1.864000000    -4.937000000
H     1.897000000    -3.256000000    -5.477000000
O     6.076000000     3.356000000    -7.111000000
H     5.962000000     4.306000000    -7.131000000
H     5.595000000     3.041000000    -7.876000000
O     4.826000000     3.143000000    -3.427000000
H     4.326000000     3.327000000    -4.223000000
H     4.545000000     2.266000000    -3.165000000
O     3.683000000     3.297000000    -5.791000000
H     4.592000000     3.110000000    -6.025000000
H     3.409000000     3.970000000    -6.414000000
O     8.129000000    -4.719000000    -1.644000000
H     8.900000000    -5.136000000    -2.028000000
H     7.563000000    -4.527000000    -2.392000000
O     0.601000000    -0.991000000    -7.670000000
H     0.879000000    -0.150000000    -7.307000000
H     0.595000000    -1.586000000    -6.920000000
O     7.120000000    -4.650000000    -4.445000000
H     6.403000000    -5.223000000    -4.716000000
H     7.902000000    -5.048000000    -4.828000000
O     4.883000000    -6.213000000    -4.997000000
H     4.509000000    -5.366000000    -5.238000000
H     4.270000000    -6.856000000    -5.355000000
O     8.048000000    -0.661000000    -8.065000000
H     7.844000000     0.002000000    -7.405000000
H     8.978000000    -0.847000000    -7.939000000
O     7.598000000     1.301000000    -5.829000000
H     6.782000000     0.807000000    -5.749000000
H     7.320000000     2.215000000    -5.890000000
O     9.887000000     0.786000000    -4.374000000
H     9.263000000     0.760000000    -5.099000000
H     9.364000000     0.576000000    -3.600000000
O     5.619000000    -0.250000000    -5.362000000
H     5.008000000    -0.434000000    -6.076000000
H     5.065000000    -0.180000000    -4.585000000
O     9.247000000    -1.180000000    -1.760000000
H     9.221000000    -1.881000000    -1.108000000
H     8.492000000    -1.349000000    -2.324000000
O     6.425000000     0.910000000    -1.652000000
H     6.541000000     0.001000000    -1.376000000
H     5.562000000     0.927000000    -2.066000000
O     7.279000000    -1.691000000    -3.646000000
H     6.925000000    -1.109000000    -4.320000000
H     6.913000000    -2.550000000    -3.856000000
O     7.260000000     3.353000000    -2.318000000
H     6.516000000     3.266000000    -2.914000000
H     7.410000000     2.466000000    -1.991000000
