215
-1463.24478
C     3.073000000    -1.920000000     3.576000000
H     2.312000000    -2.695000000     3.529000000
C     2.682000000    -0.672000000     3.977000000
C     3.536000000     0.410000000     4.054000000
H     3.300000000     1.441000000     4.306000000
C     1.204000000    -0.362000000     3.979000000
O     0.475000000    -1.409000000     4.585000000
H     0.845000000    -0.179000000     2.955000000
O     0.843000000     0.803000000     4.822000000
C    -0.106000000     1.706000000     4.367000000
C     0.311000000     2.803000000     3.595000000
H     1.389000000     2.941000000     3.602000000
C    -0.632000000     3.506000000     2.876000000
O    -0.124000000     4.446000000     1.963000000
C    -1.996000000     3.278000000     3.045000000
C    -3.106000000     4.016000000     2.283000000
H    -3.960000000     3.913000000     2.956000000
C    -3.269000000     3.456000000     0.862000000
C    -4.340000000     2.540000000     0.738000000
H    -4.982000000     2.394000000     1.603000000
H    -2.900000000     5.087000000     2.219000000
C    -2.407000000     2.164000000     3.825000000
H    -3.472000000     1.968000000     3.731000000
C    -1.460000000     1.378000000     4.452000000
C    -1.912000000     0.207000000     5.289000000
H    -2.943000000     0.275000000     5.641000000
H    -1.339000000    -0.077000000     6.174000000
C    -1.934000000    -1.024000000     4.301000000
C    -3.075000000    -1.379000000     3.634000000
H    -3.988000000    -0.835000000     3.861000000
C    -0.784000000    -1.773000000     4.146000000
C    -0.800000000    -2.915000000     3.349000000
H     0.108000000    -3.491000000     3.192000000
C    -1.900000000    -3.223000000     2.569000000
O    -1.716000000    -4.252000000     1.717000000
C    -1.580000000    -3.892000000     0.341000000
C    -0.500000000    -4.723000000    -0.335000000
C    -0.231000000    -4.512000000    -1.718000000
H    -0.924000000    -3.961000000    -2.350000000
C     0.331000000    -5.477000000     0.433000000
H     0.298000000    -5.574000000     1.515000000
O    -2.853000000    -3.974000000    -0.358000000
H    -1.325000000    -2.822000000     0.317000000
C    -3.077000000    -2.492000000     2.747000000
C    -4.357000000    -2.810000000     2.014000000
H    -5.243000000    -2.439000000     2.534000000
H    -4.268000000    -3.893000000     1.904000000
C    -4.235000000    -2.205000000     0.650000000
C    -4.883000000    -0.981000000     0.471000000
H    -5.139000000    -0.403000000     1.355000000
C    -3.682000000    -2.867000000    -0.473000000
C    -3.703000000    -2.262000000    -1.680000000
H    -3.202000000    -2.720000000    -2.528000000
C    -4.413000000    -1.048000000    -1.857000000
O    -4.112000000    -0.435000000    -3.091000000
C    -3.158000000     0.619000000    -3.085000000
C    -2.199000000     0.603000000    -4.275000000
C    -1.981000000    -0.622000000    -4.955000000
H    -2.526000000    -1.512000000    -4.649000000
C    -1.597000000     1.725000000    -4.761000000
H    -1.872000000     2.649000000    -4.257000000
O    -3.837000000     1.841000000    -2.840000000
H    -2.483000000     0.352000000    -2.258000000
C    -4.949000000    -0.389000000    -0.769000000
C    -5.630000000     0.971000000    -0.824000000
H    -6.366000000     1.162000000    -0.040000000
H    -6.132000000     1.152000000    -1.776000000
C    -4.585000000     2.074000000    -0.574000000
C    -3.750000000     2.500000000    -1.626000000
C    -2.695000000     3.385000000    -1.412000000
H    -1.949000000     3.599000000    -2.173000000
C    -2.355000000     3.755000000    -0.160000000
O    -1.268000000     4.550000000    -0.038000000
C    -0.052000000     4.016000000     0.606000000
H    -0.121000000     2.919000000     0.662000000
C     1.219000000     4.496000000    -0.188000000
C     2.432000000     4.272000000     0.439000000
H     2.428000000     3.784000000     1.410000000
C     1.175000000     5.023000000    -1.449000000
H     0.236000000     5.265000000    -1.941000000
C     2.312000000     5.216000000    -2.135000000
O     2.311000000     5.711000000    -3.435000000
C     3.505000000     4.943000000    -1.518000000
H     4.465000000     5.135000000    -1.988000000
C     3.601000000     4.554000000    -0.191000000
O     4.849000000     4.276000000     0.362000000
C     4.967000000     4.091000000     1.716000000
C     5.469000000     2.845000000     2.108000000
H     5.703000000     2.139000000     1.315000000
C     4.768000000     5.068000000     2.704000000
H     4.403000000     6.066000000     2.474000000
C     4.912000000     4.745000000     3.991000000
H     4.754000000     5.544000000     4.710000000
C     5.355000000     3.441000000     4.348000000
H     5.351000000     3.290000000     5.425000000
C     5.613000000     2.455000000     3.442000000
O     5.875000000     1.094000000     3.767000000
C     4.876000000     0.148000000     3.716000000
C     5.355000000    -1.156000000     3.385000000
H     6.400000000    -1.404000000     3.220000000
C     4.412000000    -2.175000000     3.247000000
O     4.950000000    -3.416000000     2.957000000
C     4.233000000    -4.596000000     2.950000000
C     3.374000000    -4.879000000     1.908000000
H     3.134000000    -4.130000000     1.158000000
C     4.582000000    -5.520000000     3.966000000
H     5.238000000    -5.121000000     4.735000000
C     4.006000000    -6.826000000     3.835000000
H     4.241000000    -7.590000000     4.573000000
C     3.284000000    -7.176000000     2.718000000
H     2.954000000    -8.211000000     2.670000000
C     2.948000000    -6.205000000     1.767000000
O     2.469000000    -6.732000000     0.576000000
C     1.494000000    -5.997000000    -0.156000000
C     1.799000000    -5.808000000    -1.533000000
H     2.676000000    -6.215000000    -2.031000000
C     0.938000000    -5.004000000    -2.257000000
O     1.291000000    -4.634000000    -3.555000000
C     0.417000000    -4.574000000    -4.626000000
C     0.272000000    -3.257000000    -5.126000000
H     1.021000000    -2.512000000    -4.870000000
C    -0.353000000    -5.659000000    -5.149000000
H    -0.184000000    -6.656000000    -4.750000000
C    -1.288000000    -5.452000000    -6.134000000
H    -1.998000000    -6.228000000    -6.408000000
C    -1.398000000    -4.132000000    -6.614000000
H    -2.117000000    -3.809000000    -7.362000000
C    -0.674000000    -3.076000000    -6.171000000
O    -0.942000000    -1.837000000    -6.724000000
C    -1.186000000    -0.639000000    -6.086000000
C    -0.544000000     0.504000000    -6.550000000
H     0.176000000     0.345000000    -7.349000000
C    -0.726000000     1.690000000    -5.872000000
O    -0.145000000     2.827000000    -6.374000000
C    -0.006000000     3.953000000    -5.598000000
C    -0.997000000     4.924000000    -5.784000000
H    -1.823000000     4.686000000    -6.448000000
C    -0.977000000     6.129000000    -5.057000000
H    -1.804000000     6.832000000    -5.008000000
C     0.154000000     6.382000000    -4.328000000
H     0.244000000     7.326000000    -3.796000000
C     1.197000000     5.444000000    -4.202000000
C     1.124000000     4.171000000    -4.796000000
H     1.847000000     3.395000000    -4.558000000
C     2.840000000     0.540000000     0.272000000
H     3.563000000     1.270000000     0.628000000
C     1.468000000     0.654000000     0.477000000
H     1.224000000     1.487000000     1.132000000
C     0.569000000    -0.241000000    -0.089000000
H    -0.524000000    -0.104000000     0.064000000
C     1.039000000    -1.328000000    -0.785000000
H     0.397000000    -2.049000000    -1.286000000
C     2.371000000    -1.579000000    -0.822000000
H     2.771000000    -2.439000000    -1.353000000
C     3.262000000    -0.694000000    -0.308000000
C     4.761000000    -0.978000000    -0.555000000
O     5.122000000    -1.931000000    -1.239000000
O     5.590000000    -0.073000000    -0.523000000
O     3.440000000     1.195000000    -6.102000000
H     2.578000000     1.562000000    -6.296000000
H     3.440000000     1.072000000    -5.153000000
O     3.248000000     0.179000000    -3.503000000
H     3.216000000     0.034000000    -2.557000000
H     3.681000000    -0.602000000    -3.849000000
O     3.029000000    -1.733000000    -6.404000000
H     3.249000000    -0.813000000    -6.550000000
H     3.388000000    -1.931000000    -5.539000000
O     4.834000000    -4.503000000    -0.999000000
H     5.138000000    -3.596000000    -1.021000000
H     4.985000000    -4.828000000    -1.887000000
O     7.528000000     2.996000000    -3.909000000
H     7.357000000     2.511000000    -3.102000000
H     8.081000000     2.411000000    -4.427000000
O    10.163000000    -1.754000000    -2.046000000
H    10.700000000    -1.183000000    -1.496000000
H     9.431000000    -2.009000000    -1.484000000
O     5.622000000    -4.775000000    -3.738000000
H     5.112000000    -5.508000000    -4.084000000
H     6.520000000    -4.958000000    -4.015000000
O     6.738000000     2.091000000    -1.529000000
H     6.414000000     2.641000000    -0.816000000
H     6.447000000     1.208000000    -1.300000000
O     7.728000000    -2.510000000    -0.730000000
H     6.874000000    -2.116000000    -0.905000000
H     7.529000000    -3.310000000    -0.243000000
O     6.773000000    -4.217000000     1.074000000
H     6.340000000    -4.297000000     1.924000000
H     6.236000000    -4.744000000     0.482000000
O     9.626000000     1.268000000    -2.278000000
H     9.099000000     1.678000000    -1.592000000
H     9.044000000     0.617000000    -2.669000000
O     8.214000000    -0.357000000    -3.678000000
H     8.606000000    -1.136000000    -3.282000000
H     7.288000000    -0.579000000    -3.778000000
O     7.832000000     0.066000000     0.670000000
H     6.918000000     0.106000000     0.391000000
H     8.118000000    -0.816000000     0.431000000
O    10.273000000     1.291000000     1.581000000
H     9.362000000     1.073000000     1.384000000
H    10.281000000     2.246000000     1.648000000
O     5.063000000    -7.373000000    -0.405000000
H     4.905000000    -6.451000000    -0.605000000
H     4.486000000    -7.850000000    -1.002000000
O     4.830000000     2.433000000    -3.433000000
H     5.637000000     2.365000000    -2.923000000
H     4.335000000     1.646000000    -3.205000000
O     8.341000000    -4.730000000    -2.634000000
H     8.084000000    -3.983000000    -2.093000000
H     9.050000000    -4.395000000    -3.183000000
O     4.248000000    -2.251000000    -3.721000000
H     4.542000000    -2.055000000    -2.831000000
H     4.392000000    -3.193000000    -3.818000000
O     5.929000000     0.000000000    -5.905000000
H     6.323000000     0.747000000    -6.356000000
H     5.043000000     0.290000000    -5.688000000
