215
-1458.26848
C    -4.728000000    -0.600000000    -1.937000000
H    -4.415000000     0.322000000    -2.420000000
C    -4.683000000    -0.620000000    -0.521000000
C    -5.040000000    -1.843000000     0.148000000
H    -5.271000000    -1.769000000     1.208000000
C    -4.207000000     0.646000000     0.212000000
O    -4.659000000     1.840000000    -0.425000000
H    -3.109000000     0.575000000     0.238000000
O    -4.664000000     0.732000000     1.571000000
C    -3.825000000     1.049000000     2.616000000
C    -3.202000000     0.016000000     3.268000000
H    -3.511000000    -0.998000000     3.025000000
C    -2.202000000     0.273000000     4.191000000
O    -1.432000000    -0.784000000     4.678000000
C    -1.906000000     1.590000000     4.492000000
C    -0.721000000     1.867000000     5.329000000
H    -0.887000000     2.888000000     5.678000000
C     0.630000000     1.754000000     4.605000000
C     1.250000000     2.848000000     3.977000000
H     0.759000000     3.817000000     4.016000000
H    -0.679000000     1.234000000     6.219000000
C    -2.499000000     2.628000000     3.771000000
H    -2.111000000     3.631000000     3.929000000
C    -3.452000000     2.358000000     2.817000000
C    -3.966000000     3.495000000     1.895000000
H    -4.002000000     4.506000000     2.306000000
H    -5.035000000     3.422000000     1.683000000
C    -3.314000000     3.644000000     0.511000000
C    -2.354000000     4.607000000     0.254000000
H    -1.922000000     5.134000000     1.102000000
C    -3.668000000     2.828000000    -0.576000000
C    -3.049000000     2.996000000    -1.848000000
H    -3.300000000     2.337000000    -2.675000000
C    -2.076000000     3.934000000    -2.090000000
O    -1.315000000     3.776000000    -3.249000000
C    -0.110000000     2.964000000    -3.057000000
C     0.224000000     2.007000000    -4.224000000
C     1.533000000     1.645000000    -4.618000000
H     2.360000000     2.115000000    -4.091000000
C    -0.913000000     1.598000000    -4.909000000
H    -1.935000000     1.916000000    -4.720000000
O     0.981000000     3.906000000    -2.829000000
H    -0.137000000     2.398000000    -2.114000000
C    -1.633000000     4.636000000    -0.976000000
C    -0.362000000     5.543000000    -0.901000000
H    -0.567000000     6.285000000    -0.126000000
H    -0.144000000     6.063000000    -1.836000000
C     0.823000000     4.670000000    -0.562000000
C     1.338000000     4.686000000     0.742000000
H     0.876000000     5.315000000     1.499000000
C     1.457000000     3.924000000    -1.563000000
C     2.551000000     3.115000000    -1.187000000
H     3.030000000     2.580000000    -2.003000000
C     3.057000000     3.183000000     0.048000000
O     4.124000000     2.377000000     0.276000000
C     3.925000000     1.150000000     0.885000000
C     4.831000000     0.087000000     0.304000000
C     5.176000000     0.129000000    -1.094000000
H     5.026000000     1.023000000    -1.694000000
C     5.050000000    -1.034000000     1.106000000
H     4.681000000    -1.065000000     2.128000000
O     4.159000000     1.336000000     2.303000000
H     2.880000000     0.845000000     0.722000000
C     2.500000000     3.964000000     1.061000000
C     3.018000000     3.961000000     2.474000000
H     2.791000000     4.925000000     2.934000000
H     4.105000000     3.851000000     2.472000000
C     2.439000000     2.792000000     3.219000000
C     3.025000000     1.535000000     3.046000000
C     2.555000000     0.443000000     3.763000000
H     3.004000000    -0.539000000     3.634000000
C     1.374000000     0.537000000     4.447000000
O     0.867000000    -0.676000000     4.858000000
C    -0.249000000    -1.132000000     4.069000000
H    -0.133000000    -0.648000000     3.088000000
C    -0.109000000    -2.601000000     3.746000000
C    -1.250000000    -3.359000000     3.365000000
H    -2.213000000    -2.857000000     3.332000000
C     1.185000000    -3.180000000     3.546000000
H     2.112000000    -2.672000000     3.800000000
C     1.338000000    -4.530000000     3.137000000
O     2.507000000    -5.224000000     3.197000000
C     0.189000000    -5.285000000     3.014000000
H     0.355000000    -6.321000000     2.730000000
C    -1.078000000    -4.731000000     3.065000000
O    -2.118000000    -5.585000000     2.741000000
C    -3.437000000    -5.192000000     2.555000000
C    -3.863000000    -4.929000000     1.257000000
H    -3.227000000    -5.120000000     0.397000000
C    -4.323000000    -5.365000000     3.630000000
H    -4.102000000    -5.679000000     4.647000000
C    -5.623000000    -5.115000000     3.327000000
H    -6.344000000    -5.294000000     4.120000000
C    -6.053000000    -4.543000000     2.130000000
H    -7.118000000    -4.414000000     1.958000000
C    -5.180000000    -4.579000000     1.076000000
O    -5.630000000    -4.166000000    -0.146000000
C    -5.261000000    -2.969000000    -0.676000000
C    -5.223000000    -2.932000000    -2.086000000
H    -5.477000000    -3.796000000    -2.696000000
C    -5.034000000    -1.749000000    -2.682000000
O    -5.168000000    -1.731000000    -4.105000000
C    -4.690000000    -0.731000000    -4.852000000
C    -3.364000000    -0.777000000    -5.334000000
H    -2.763000000    -1.677000000    -5.229000000
C    -5.624000000     0.209000000    -5.291000000
H    -6.681000000     0.175000000    -5.040000000
C    -5.219000000     1.264000000    -6.077000000
H    -5.908000000     2.017000000    -6.450000000
C    -3.944000000     1.298000000    -6.538000000
H    -3.706000000     2.116000000    -7.214000000
C    -3.078000000     0.278000000    -6.214000000
O    -1.826000000     0.239000000    -6.730000000
C    -0.721000000     0.744000000    -6.017000000
C     0.596000000     0.390000000    -6.377000000
H     0.819000000    -0.310000000    -7.178000000
C     1.723000000     0.845000000    -5.743000000
O     2.916000000     0.422000000    -6.219000000
C     4.020000000     0.551000000    -5.454000000
C     4.388000000    -0.451000000    -4.570000000
H     3.802000000    -1.361000000    -4.470000000
C     4.770000000     1.669000000    -5.609000000
H     4.528000000     2.403000000    -6.374000000
C     5.905000000     1.820000000    -4.836000000
H     6.493000000     2.724000000    -4.970000000
C     6.214000000     0.901000000    -3.837000000
H     7.074000000     1.112000000    -3.207000000
C     5.533000000    -0.257000000    -3.804000000
O     5.893000000    -1.231000000    -2.912000000
C     5.740000000    -1.034000000    -1.584000000
C     6.139000000    -2.038000000    -0.748000000
H     6.769000000    -2.877000000    -1.031000000
C     5.858000000    -2.030000000     0.590000000
O     6.360000000    -2.993000000     1.430000000
C     5.711000000    -3.645000000     2.417000000
C     6.553000000    -4.166000000     3.382000000
H     7.625000000    -4.070000000     3.227000000
C     5.983000000    -5.023000000     4.320000000
H     6.466000000    -5.357000000     5.234000000
C     4.624000000    -5.317000000     4.265000000
H     4.108000000    -5.933000000     4.997000000
C     3.800000000    -4.735000000     3.285000000
C     4.357000000    -3.915000000     2.358000000
H     3.871000000    -3.815000000     1.391000000
C     1.083000000    -2.809000000    -0.161000000
H     0.839000000    -3.796000000     0.223000000
C     0.341000000    -1.646000000     0.126000000
H    -0.485000000    -1.594000000     0.830000000
C     0.580000000    -0.456000000    -0.435000000
H     0.016000000     0.382000000    -0.254000000
C     1.623000000    -0.374000000    -1.325000000
H     1.829000000     0.572000000    -1.820000000
C     2.408000000    -1.483000000    -1.619000000
H     3.254000000    -1.379000000    -2.294000000
C     2.164000000    -2.741000000    -1.058000000
C     2.987000000    -3.957000000    -1.358000000
O     3.332000000    -4.147000000    -2.522000000
O     2.925000000    -4.935000000    -0.716000000
O     2.944000000    -6.960000000    -2.614000000
H     2.051000000    -6.977000000    -2.958000000
H     3.002000000    -6.131000000    -2.140000000
O     3.061000000    -7.065000000     0.868000000
H     2.942000000    -6.260000000     0.364000000
H     3.263000000    -6.764000000     1.754000000
O    -2.173000000    -7.402000000    -0.863000000
H    -1.235000000    -7.220000000    -0.917000000
H    -2.535000000    -7.034000000    -1.669000000
O     1.518000000    -3.070000000    -7.267000000
H     1.722000000    -3.360000000    -6.378000000
H     0.586000000    -2.854000000    -7.241000000
O     0.994000000    -6.282000000    -4.603000000
H     0.699000000    -6.337000000    -5.511000000
H     0.870000000    -7.166000000    -4.257000000
O     6.034000000    -7.343000000     1.617000000
H     5.216000000    -7.754000000     1.897000000
H     5.841000000    -6.995000000     0.746000000
O     5.530000000    -5.954000000    -0.680000000
H     5.679000000    -5.926000000    -1.625000000
H     4.622000000    -5.671000000    -0.572000000
O     4.458000000    -8.327000000    -4.150000000
H     4.492000000    -7.597000000    -4.769000000
H     4.106000000    -7.944000000    -3.347000000
O     8.395000000    -4.040000000    -2.915000000
H     7.576000000    -4.445000000    -3.198000000
H     8.693000000    -4.584000000    -2.186000000
O     4.341000000    -9.514000000    -0.452000000
H     5.081000000    -9.562000000     0.153000000
H     3.749000000    -8.876000000    -0.055000000
O    -0.228000000    -2.609000000    -3.626000000
H     0.495000000    -3.083000000    -4.038000000
H     0.189000000    -1.860000000    -3.201000000
O     8.399000000    -5.834000000    -0.571000000
H     7.447000000    -5.888000000    -0.482000000
H     8.578000000    -6.183000000    -1.444000000
O     4.096000000    -5.860000000    -5.820000000
H     4.311000000    -5.596000000    -6.714000000
H     3.150000000    -5.727000000    -5.752000000
O     0.454000000    -6.670000000    -0.564000000
H     1.191000000    -6.062000000    -0.615000000
H     0.857000000    -7.538000000    -0.604000000
O     6.655000000    -3.077000000    -5.509000000
H     7.539000000    -2.906000000    -5.185000000
H     6.193000000    -3.449000000    -4.757000000
O     5.580000000    -4.691000000    -3.543000000
H     4.724000000    -4.323000000    -3.324000000
H     5.380000000    -5.515000000    -3.987000000
O     0.323000000    -8.526000000    -3.527000000
H    -0.418000000    -8.961000000    -3.104000000
H     1.073000000    -9.087000000    -3.331000000
O    -1.231000000    -5.296000000    -2.804000000
H    -1.265000000    -4.409000000    -3.163000000
H    -0.381000000    -5.345000000    -2.366000000
O     1.999000000    -3.819000000    -4.660000000
H     1.503000000    -4.620000000    -4.491000000
H     2.628000000    -3.771000000    -3.940000000
