215
-1483.95585
C     2.596000000    -0.720000000     3.901000000
H     1.922000000    -1.562000000     4.036000000
C     1.938000000     0.497000000     3.844000000
C     2.723000000     1.667000000     3.733000000
H     2.151000000     2.591000000     3.735000000
C     0.397000000     0.574000000     3.971000000
O    -0.199000000    -0.356000000     4.939000000
H    -0.066000000     0.380000000     2.992000000
O    -0.089000000     1.942000000     4.236000000
C    -1.073000000     2.612000000     3.473000000
C    -0.636000000     3.556000000     2.610000000
H     0.387000000     3.922000000     2.571000000
C    -1.550000000     4.164000000     1.701000000
O    -1.060000000     4.939000000     0.723000000
C    -2.889000000     3.751000000     1.716000000
C    -3.856000000     4.229000000     0.584000000
H    -4.897000000     4.270000000     0.912000000
C    -3.730000000     3.234000000    -0.607000000
C    -4.518000000     2.082000000    -0.719000000
H    -5.312000000     1.815000000    -0.028000000
H    -3.520000000     5.147000000     0.097000000
C    -3.316000000     2.787000000     2.637000000
H    -4.345000000     2.438000000     2.612000000
C    -2.417000000     2.213000000     3.528000000
C    -2.849000000     1.152000000     4.497000000
H    -3.909000000     1.314000000     4.699000000
H    -2.413000000     1.312000000     5.485000000
C    -2.509000000    -0.314000000     4.097000000
C    -3.545000000    -1.006000000     3.479000000
H    -4.565000000    -0.634000000     3.432000000
C    -1.277000000    -0.953000000     4.439000000
C    -1.107000000    -2.276000000     4.022000000
H    -0.173000000    -2.813000000     4.166000000
C    -2.043000000    -2.940000000     3.266000000
O    -1.650000000    -4.135000000     2.697000000
C    -1.242000000    -3.897000000     1.326000000
C     0.031000000    -4.677000000     0.994000000
C     0.359000000    -4.998000000    -0.355000000
H    -0.368000000    -4.817000000    -1.142000000
C     0.905000000    -5.066000000     2.050000000
H     0.686000000    -4.896000000     3.101000000
O    -2.310000000    -4.266000000     0.459000000
H    -0.940000000    -2.852000000     1.166000000
C    -3.352000000    -2.292000000     2.982000000
C    -4.373000000    -2.877000000     2.057000000
H    -5.396000000    -2.575000000     2.291000000
H    -4.352000000    -3.969000000     2.072000000
C    -4.169000000    -2.597000000     0.638000000
C    -4.804000000    -1.506000000     0.053000000
H    -5.543000000    -0.924000000     0.598000000
C    -3.189000000    -3.325000000    -0.061000000
C    -2.982000000    -3.076000000    -1.396000000
H    -2.275000000    -3.647000000    -1.993000000
C    -3.647000000    -2.027000000    -2.042000000
O    -3.243000000    -1.664000000    -3.309000000
C    -2.335000000    -0.508000000    -3.365000000
C    -1.337000000    -0.753000000    -4.472000000
C    -0.807000000    -2.054000000    -4.656000000
H    -1.299000000    -2.860000000    -4.117000000
C    -0.779000000     0.293000000    -5.223000000
H    -1.135000000     1.317000000    -5.143000000
O    -3.141000000     0.621000000    -3.769000000
H    -1.843000000    -0.343000000    -2.395000000
C    -4.583000000    -1.274000000    -1.312000000
C    -5.252000000    -0.054000000    -1.890000000
H    -6.104000000     0.288000000    -1.299000000
H    -5.593000000    -0.334000000    -2.889000000
C    -4.427000000     1.214000000    -1.784000000
C    -3.369000000     1.485000000    -2.689000000
C    -2.569000000     2.631000000    -2.673000000
H    -1.780000000     2.745000000    -3.411000000
C    -2.757000000     3.518000000    -1.637000000
O    -1.772000000     4.526000000    -1.477000000
C    -0.734000000     4.195000000    -0.545000000
H    -0.723000000     3.102000000    -0.424000000
C     0.640000000     4.683000000    -1.055000000
C     1.654000000     5.089000000    -0.132000000
H     1.409000000     5.163000000     0.924000000
C     1.012000000     4.503000000    -2.388000000
H     0.230000000     4.124000000    -3.041000000
C     2.332000000     4.805000000    -2.860000000
O     2.608000000     4.655000000    -4.158000000
C     3.202000000     5.489000000    -2.008000000
H     4.133000000     5.874000000    -2.418000000
C     2.866000000     5.549000000    -0.652000000
O     3.749000000     6.156000000     0.244000000
C     3.873000000     5.666000000     1.546000000
C     4.482000000     4.463000000     1.812000000
H     4.984000000     3.844000000     1.073000000
C     3.302000000     6.494000000     2.534000000
H     2.793000000     7.443000000     2.386000000
C     3.340000000     6.071000000     3.861000000
H     2.909000000     6.682000000     4.651000000
C     3.799000000     4.768000000     4.133000000
H     3.842000000     4.357000000     5.139000000
C     4.393000000     4.004000000     3.135000000
O     4.881000000     2.745000000     3.398000000
C     4.058000000     1.611000000     3.626000000
C     4.721000000     0.356000000     3.653000000
H     5.805000000     0.349000000     3.568000000
C     3.989000000    -0.799000000     3.792000000
O     4.750000000    -1.927000000     3.676000000
C     4.242000000    -3.117000000     4.128000000
C     3.783000000    -4.042000000     3.261000000
H     3.799000000    -3.816000000     2.198000000
C     4.441000000    -3.448000000     5.485000000
H     4.931000000    -2.754000000     6.162000000
C     4.204000000    -4.743000000     5.932000000
H     4.451000000    -5.005000000     6.958000000
C     3.632000000    -5.665000000     5.016000000
H     3.340000000    -6.639000000     5.399000000
C     3.452000000    -5.299000000     3.667000000
O     2.959000000    -6.213000000     2.756000000
C     2.074000000    -5.775000000     1.766000000
C     2.426000000    -6.120000000     0.442000000
H     3.274000000    -6.786000000     0.311000000
C     1.598000000    -5.681000000    -0.581000000
O     2.077000000    -5.978000000    -1.855000000
C     1.330000000    -5.935000000    -3.025000000
C     1.449000000    -4.792000000    -3.765000000
H     2.130000000    -4.012000000    -3.433000000
C     0.460000000    -6.961000000    -3.390000000
H     0.392000000    -7.816000000    -2.722000000
C    -0.213000000    -6.811000000    -4.591000000
H    -0.842000000    -7.621000000    -4.952000000
C    -0.032000000    -5.666000000    -5.375000000
H    -0.508000000    -5.553000000    -6.346000000
C     0.728000000    -4.606000000    -4.929000000
O     0.870000000    -3.505000000    -5.688000000
C     0.304000000    -2.273000000    -5.505000000
C     0.724000000    -1.205000000    -6.327000000
H     1.520000000    -1.371000000    -7.048000000
C     0.320000000     0.104000000    -6.067000000
O     0.840000000     1.131000000    -6.817000000
C     0.858000000     2.440000000    -6.429000000
C    -0.084000000     3.304000000    -7.040000000
H    -0.763000000     2.976000000    -7.823000000
C    -0.151000000     4.617000000    -6.571000000
H    -0.979000000     5.221000000    -6.933000000
C     0.693000000     5.075000000    -5.587000000
H     0.578000000     6.112000000    -5.283000000
C     1.702000000     4.243000000    -5.104000000
C     1.768000000     2.872000000    -5.490000000
H     2.451000000     2.141000000    -5.063000000
C     2.473000000     0.763000000     0.398000000
H     3.128000000     1.573000000     0.707000000
C     1.069000000     0.899000000     0.586000000
H     0.697000000     1.775000000     1.111000000
C     0.130000000    -0.047000000     0.253000000
H    -0.971000000     0.117000000     0.456000000
C     0.534000000    -1.165000000    -0.351000000
H    -0.234000000    -1.856000000    -0.690000000
C     1.911000000    -1.404000000    -0.566000000
H     2.288000000    -2.323000000    -1.006000000
C     2.929000000    -0.445000000    -0.199000000
C     4.387000000    -0.709000000    -0.299000000
O     4.677000000    -1.553000000    -1.159000000
O     5.251000000    -0.071000000     0.204000000
O     4.324000000    -0.304000000    -5.643000000
H     3.657000000     0.244000000    -5.228000000
H     4.537000000    -0.963000000    -4.983000000
O     7.433000000    -1.234000000    -1.347000000
H     6.486000000    -1.251000000    -1.211000000
H     7.799000000    -1.108000000    -0.472000000
O     6.948000000    -4.061000000    -2.500000000
H     7.234000000    -4.336000000    -3.372000000
H     7.505000000    -3.312000000    -2.291000000
O     4.809000000     2.837000000    -3.958000000
H     3.873000000     3.013000000    -4.051000000
H     4.869000000     2.241000000    -3.212000000
O     7.266000000    -0.455000000    -4.060000000
H     6.947000000    -1.114000000    -4.676000000
H     6.875000000    -0.702000000    -3.222000000
O    10.226000000    -2.665000000     1.897000000
H     9.317000000    -2.911000000     2.065000000
H    10.216000000    -2.297000000     1.014000000
O     5.818000000     1.406000000    -1.820000000
H     6.669000000     1.844000000    -1.788000000
H     5.750000000     0.955000000    -0.979000000
O     7.328000000    -1.433000000     1.888000000
H     6.553000000    -1.228000000     1.366000000
H     7.100000000    -1.157000000     2.775000000
O     9.836000000    -4.357000000    -0.760000000
H     9.167000000    -4.215000000    -0.090000000
H     9.961000000    -3.496000000    -1.159000000
O     7.011000000     1.562000000     1.429000000
H     7.422000000     0.979000000     2.068000000
H     6.271000000     1.059000000     1.087000000
O     5.304000000    -3.900000000    -0.234000000
H     5.896000000    -4.222000000    -0.913000000
H     4.913000000    -3.111000000    -0.610000000
O     9.789000000    -2.065000000    -2.065000000
H    10.390000000    -1.355000000    -1.839000000
H     8.918000000    -1.674000000    -1.991000000
O     7.669000000    -1.005000000     4.573000000
H     8.166000000    -1.648000000     5.078000000
H     7.677000000    -0.216000000     5.115000000
O     8.340000000     2.990000000    -0.382000000
H     8.481000000     3.880000000    -0.060000000
H     7.865000000     2.552000000     0.325000000
O     2.287000000     0.181000000    -3.533000000
H     2.604000000    -0.705000000    -3.355000000
H     2.122000000     0.554000000    -2.668000000
O     9.914000000    -0.153000000     0.359000000
H     9.665000000     0.249000000     1.191000000
H     9.978000000     0.581000000    -0.253000000
O     4.899000000    -2.096000000    -3.616000000
H     4.784000000    -1.736000000    -2.737000000
H     5.085000000    -3.024000000    -3.473000000
O     7.810000000     1.679000000    -5.683000000
H     7.425000000     2.542000000    -5.532000000
H     7.406000000     1.116000000    -5.023000000
O     6.942000000    -4.361000000     1.890000000
H     6.368000000    -4.165000000     1.150000000
H     6.976000000    -3.545000000     2.390000000
