215
-1440.22012
C     3.050000000    -0.865000000     4.860000000
H     2.503000000    -1.710000000     5.270000000
C     2.315000000     0.268000000     4.446000000
C     3.046000000     1.452000000     4.182000000
H     2.483000000     2.359000000     3.977000000
C     0.782000000     0.212000000     4.278000000
O     0.130000000    -0.814000000     5.100000000
H     0.405000000    -0.011000000     3.268000000
O     0.251000000     1.490000000     4.694000000
C    -0.775000000     2.053000000     3.928000000
C    -0.429000000     3.046000000     3.017000000
H     0.576000000     3.447000000     2.913000000
C    -1.420000000     3.687000000     2.169000000
O    -0.955000000     4.537000000     1.134000000
C    -2.784000000     3.374000000     2.328000000
C    -3.800000000     3.845000000     1.302000000
H    -4.756000000     4.079000000     1.776000000
C    -3.859000000     3.061000000    -0.018000000
C    -4.667000000     1.997000000    -0.189000000
H    -5.220000000     1.676000000     0.690000000
H    -3.533000000     4.865000000     1.019000000
C    -3.060000000     2.388000000     3.355000000
H    -4.113000000     2.155000000     3.490000000
C    -2.124000000     1.722000000     4.118000000
C    -2.455000000     0.625000000     5.076000000
H    -3.478000000     0.657000000     5.456000000
H    -1.825000000     0.684000000     5.967000000
C    -2.191000000    -0.677000000     4.399000000
C    -3.194000000    -1.212000000     3.633000000
H    -4.207000000    -0.818000000     3.655000000
C    -0.973000000    -1.357000000     4.555000000
C    -0.784000000    -2.584000000     3.855000000
H     0.177000000    -3.092000000     3.850000000
C    -1.751000000    -3.111000000     3.084000000
O    -1.412000000    -4.232000000     2.345000000
C    -1.128000000    -4.059000000     0.902000000
C     0.128000000    -4.744000000     0.393000000
C     0.127000000    -5.518000000    -0.724000000
H    -0.823000000    -5.687000000    -1.226000000
C     1.411000000    -4.335000000     0.853000000
H     1.486000000    -3.604000000     1.654000000
O    -2.266000000    -4.405000000     0.089000000
H    -0.900000000    -2.984000000     0.846000000
C    -3.010000000    -2.466000000     3.037000000
C    -4.088000000    -3.137000000     2.168000000
H    -5.075000000    -2.873000000     2.554000000
H    -3.973000000    -4.219000000     2.263000000
C    -4.031000000    -2.760000000     0.673000000
C    -4.892000000    -1.720000000     0.243000000
H    -5.418000000    -1.149000000     1.004000000
C    -3.156000000    -3.381000000    -0.232000000
C    -3.210000000    -2.978000000    -1.599000000
H    -2.634000000    -3.509000000    -2.352000000
C    -4.029000000    -1.978000000    -2.095000000
O    -3.714000000    -1.456000000    -3.362000000
C    -2.795000000    -0.381000000    -3.360000000
C    -1.860000000    -0.552000000    -4.548000000
C    -1.129000000    -1.706000000    -4.684000000
H    -1.362000000    -2.558000000    -4.050000000
C    -1.513000000     0.613000000    -5.291000000
H    -1.862000000     1.608000000    -5.024000000
O    -3.681000000     0.805000000    -3.458000000
H    -2.237000000    -0.349000000    -2.413000000
C    -4.790000000    -1.314000000    -1.128000000
C    -5.562000000     0.025000000    -1.481000000
H    -6.403000000     0.244000000    -0.819000000
H    -6.011000000    -0.198000000    -2.451000000
C    -4.731000000     1.304000000    -1.379000000
C    -3.828000000     1.669000000    -2.375000000
C    -3.008000000     2.778000000    -2.232000000
H    -2.335000000     3.067000000    -3.035000000
C    -3.004000000     3.432000000    -1.026000000
O    -1.949000000     4.274000000    -0.957000000
C    -0.806000000     3.953000000    -0.210000000
H    -0.771000000     2.859000000    -0.102000000
C     0.560000000     4.485000000    -0.742000000
C     1.534000000     5.086000000     0.100000000
H     1.388000000     5.099000000     1.177000000
C     0.865000000     4.234000000    -2.058000000
H     0.084000000     3.730000000    -2.622000000
C     2.011000000     4.701000000    -2.633000000
O     2.163000000     4.418000000    -3.965000000
C     3.003000000     5.300000000    -1.818000000
H     4.020000000     5.525000000    -2.131000000
C     2.810000000     5.336000000    -0.449000000
O     3.862000000     5.770000000     0.379000000
C     3.985000000     5.487000000     1.763000000
C     4.497000000     4.239000000     2.177000000
H     4.976000000     3.598000000     1.441000000
C     3.437000000     6.369000000     2.623000000
H     3.097000000     7.345000000     2.285000000
C     3.280000000     6.029000000     3.959000000
H     2.742000000     6.666000000     4.656000000
C     3.830000000     4.795000000     4.413000000
H     3.741000000     4.563000000     5.472000000
C     4.484000000     3.938000000     3.569000000
O     5.051000000     2.685000000     4.045000000
C     4.396000000     1.466000000     4.121000000
C     5.091000000     0.357000000     4.440000000
H     6.170000000     0.430000000     4.329000000
C     4.425000000    -0.866000000     4.729000000
O     5.153000000    -2.018000000     4.950000000
C     4.937000000    -3.143000000     4.094000000
C     4.331000000    -3.149000000     2.826000000
H     4.008000000    -2.232000000     2.339000000
C     5.231000000    -4.403000000     4.689000000
H     5.703000000    -4.453000000     5.667000000
C     5.045000000    -5.585000000     3.960000000
H     5.479000000    -6.483000000     4.392000000
C     4.584000000    -5.574000000     2.682000000
H     4.392000000    -6.444000000     2.060000000
C     4.278000000    -4.323000000     2.130000000
O     3.906000000    -4.437000000     0.738000000
C     2.604000000    -4.781000000     0.335000000
C     2.531000000    -5.740000000    -0.692000000
H     3.449000000    -6.019000000    -1.204000000
C     1.297000000    -6.038000000    -1.254000000
O     1.340000000    -6.591000000    -2.509000000
C     0.775000000    -6.014000000    -3.624000000
C     1.281000000    -4.800000000    -4.137000000
H     2.097000000    -4.258000000    -3.667000000
C    -0.363000000    -6.612000000    -4.199000000
H    -0.643000000    -7.586000000    -3.806000000
C    -0.998000000    -6.042000000    -5.302000000
H    -1.844000000    -6.485000000    -5.821000000
C    -0.558000000    -4.773000000    -5.685000000
H    -1.019000000    -4.130000000    -6.430000000
C     0.505000000    -4.174000000    -5.106000000
O     0.852000000    -2.879000000    -5.527000000
C    -0.042000000    -1.795000000    -5.615000000
C     0.298000000    -0.741000000    -6.404000000
H     1.047000000    -0.836000000    -7.186000000
C    -0.459000000     0.539000000    -6.274000000
O    -0.090000000     1.642000000    -7.050000000
C     0.048000000     2.886000000    -6.502000000
C    -0.588000000     4.002000000    -7.028000000
H    -1.243000000     3.971000000    -7.896000000
C    -0.351000000     5.281000000    -6.481000000
H    -0.673000000     6.173000000    -7.011000000
C     0.457000000     5.431000000    -5.336000000
H     0.750000000     6.385000000    -4.906000000
C     1.190000000     4.301000000    -4.906000000
C     0.982000000     3.051000000    -5.489000000
H     1.651000000     2.250000000    -5.186000000
C     3.144000000     0.796000000     0.631000000
H     3.732000000     1.580000000     1.101000000
C     1.776000000     0.715000000     0.805000000
H     1.324000000     1.566000000     1.309000000
C     1.009000000    -0.370000000     0.321000000
H    -0.098000000    -0.486000000     0.453000000
C     1.666000000    -1.342000000    -0.457000000
H     1.130000000    -2.185000000    -0.887000000
C     3.033000000    -1.276000000    -0.534000000
H     3.464000000    -2.048000000    -1.166000000
C     3.806000000    -0.256000000    -0.023000000
C     5.368000000    -0.315000000    -0.095000000
O     5.876000000    -1.305000000    -0.360000000
O     5.995000000     0.706000000     0.082000000
O     3.205000000    -0.909000000    -3.747000000
H     3.135000000     0.031000000    -3.582000000
H     3.947000000    -1.192000000    -3.212000000
O     8.444000000    -0.729000000    -1.133000000
H     7.599000000    -0.965000000    -0.750000000
H     8.296000000     0.130000000    -1.529000000
O     8.442000000     3.342000000     3.491000000
H     7.800000000     2.995000000     2.872000000
H     9.054000000     2.620000000     3.632000000
O     6.713000000     3.603000000    -3.947000000
H     6.363000000     3.341000000    -3.096000000
H     6.378000000     2.945000000    -4.557000000
O     5.462000000     1.152000000    -4.616000000
H     5.802000000     0.354000000    -4.211000000
H     4.612000000     1.288000000    -4.198000000
O     5.439000000    -5.145000000    -3.145000000
H     5.768000000    -4.549000000    -2.472000000
H     5.859000000    -5.983000000    -2.948000000
O     5.676000000     2.834000000    -1.627000000
H     6.168000000     3.496000000    -1.142000000
H     5.804000000     2.027000000    -1.128000000
O     7.525000000    -2.270000000     1.737000000
H     7.252000000    -1.810000000     0.943000000
H     7.917000000    -1.590000000     2.284000000
O     9.979000000    -0.908000000    -3.683000000
H     9.410000000    -0.788000000    -2.923000000
H     9.762000000    -1.781000000    -4.010000000
O     8.436000000    -4.805000000     2.562000000
H     9.281000000    -4.361000000     2.487000000
H     7.791000000    -4.130000000     2.352000000
O     8.072000000     2.306000000     0.741000000
H     8.644000000     2.110000000    -0.001000000
H     7.327000000     1.714000000     0.632000000
O     6.152000000    -3.766000000    -0.906000000
H     5.694000000    -4.089000000    -0.130000000
H     6.160000000    -2.814000000    -0.800000000
O     8.513000000    -5.295000000    -0.612000000
H     7.706000000    -4.782000000    -0.634000000
H     8.744000000    -5.337000000     0.316000000
O    11.190000000    -0.604000000     1.626000000
H    12.111000000    -0.610000000     1.366000000
H    10.773000000     0.001000000     1.012000000
O     7.511000000     4.871000000    -0.767000000
H     8.236000000     4.336000000    -0.444000000
H     7.324000000     5.478000000    -0.051000000
O     9.027000000     2.152000000    -1.986000000
H     9.898000000     2.333000000    -2.339000000
H     8.426000000     2.460000000    -2.664000000
O     3.188000000     1.618000000    -2.653000000
H     3.876000000     2.163000000    -2.270000000
H     2.467000000     1.665000000    -2.025000000
O    10.948000000    -2.487000000    -0.946000000
H    11.338000000    -1.615000000    -0.883000000
H    10.004000000    -2.328000000    -0.941000000
O     5.987000000    -1.364000000    -3.184000000
H     6.442000000    -2.167000000    -3.439000000
H     6.200000000    -1.252000000    -2.258000000
