215
-1455.51327
C     2.945000000    -1.033000000     3.756000000
H     2.408000000    -1.979000000     3.744000000
C     2.274000000     0.143000000     4.027000000
C     2.990000000     1.319000000     3.919000000
H     2.534000000     2.304000000     3.966000000
C     0.782000000     0.243000000     4.121000000
O     0.191000000    -0.699000000     5.023000000
H     0.404000000     0.110000000     3.097000000
O     0.266000000     1.537000000     4.669000000
C    -0.680000000     2.112000000     4.015000000
C    -0.333000000     3.020000000     3.049000000
H     0.723000000     3.245000000     2.924000000
C    -1.276000000     3.652000000     2.265000000
O    -0.861000000     4.653000000     1.413000000
C    -2.627000000     3.336000000     2.346000000
C    -3.675000000     3.968000000     1.395000000
H    -4.626000000     4.026000000     1.928000000
C    -3.689000000     3.254000000     0.091000000
C    -4.459000000     2.105000000    -0.117000000
H    -5.149000000     1.728000000     0.634000000
H    -3.672000000     5.057000000     1.311000000
C    -3.036000000     2.448000000     3.293000000
H    -4.107000000     2.408000000     3.472000000
C    -2.068000000     1.736000000     4.095000000
C    -2.435000000     0.585000000     4.955000000
H    -3.463000000     0.547000000     5.322000000
H    -1.872000000     0.840000000     5.856000000
C    -2.156000000    -0.726000000     4.372000000
C    -3.210000000    -1.394000000     3.733000000
H    -4.198000000    -0.944000000     3.782000000
C    -0.961000000    -1.352000000     4.542000000
C    -0.755000000    -2.557000000     3.938000000
H     0.201000000    -3.075000000     3.926000000
C    -1.812000000    -3.134000000     3.150000000
O    -1.398000000    -4.156000000     2.408000000
C    -1.124000000    -3.974000000     0.969000000
C     0.027000000    -4.799000000     0.319000000
C     0.118000000    -5.072000000    -1.052000000
H    -0.723000000    -4.893000000    -1.718000000
C     0.993000000    -5.308000000     1.188000000
H     0.878000000    -5.158000000     2.259000000
O    -2.388000000    -4.276000000     0.261000000
H    -0.807000000    -2.934000000     0.804000000
C    -3.065000000    -2.540000000     3.042000000
C    -4.128000000    -2.971000000     2.133000000
H    -5.127000000    -2.654000000     2.442000000
H    -4.147000000    -4.059000000     2.225000000
C    -4.075000000    -2.624000000     0.644000000
C    -4.779000000    -1.545000000     0.142000000
H    -5.428000000    -0.966000000     0.793000000
C    -3.203000000    -3.243000000    -0.249000000
C    -3.076000000    -2.900000000    -1.644000000
H    -2.408000000    -3.439000000    -2.312000000
C    -3.805000000    -1.728000000    -2.019000000
O    -3.578000000    -1.168000000    -3.269000000
C    -2.675000000    -0.134000000    -3.428000000
C    -1.601000000    -0.396000000    -4.451000000
C    -1.230000000    -1.659000000    -4.787000000
H    -1.773000000    -2.543000000    -4.461000000
C    -0.783000000     0.717000000    -4.791000000
H    -0.972000000     1.712000000    -4.396000000
O    -3.330000000     1.166000000    -3.531000000
H    -2.139000000    -0.053000000    -2.471000000
C    -4.720000000    -1.080000000    -1.152000000
C    -5.395000000     0.233000000    -1.657000000
H    -6.343000000     0.324000000    -1.124000000
H    -5.658000000     0.246000000    -2.717000000
C    -4.500000000     1.480000000    -1.338000000
C    -3.587000000     1.885000000    -2.380000000
C    -2.689000000     2.929000000    -2.089000000
H    -2.028000000     3.287000000    -2.874000000
C    -2.737000000     3.604000000    -0.899000000
O    -1.844000000     4.696000000    -0.726000000
C    -0.650000000     4.339000000     0.024000000
H    -0.431000000     3.262000000    -0.034000000
C     0.638000000     5.044000000    -0.482000000
C     1.752000000     5.213000000     0.368000000
H     1.778000000     4.871000000     1.399000000
C     0.730000000     5.254000000    -1.871000000
H    -0.039000000     4.912000000    -2.559000000
C     1.964000000     5.621000000    -2.423000000
O     2.077000000     5.776000000    -3.781000000
C     3.038000000     5.881000000    -1.587000000
H     4.023000000     6.130000000    -1.974000000
C     2.948000000     5.604000000    -0.245000000
O     4.096000000     5.763000000     0.575000000
C     4.273000000     5.420000000     1.887000000
C     4.594000000     4.072000000     2.072000000
H     4.833000000     3.439000000     1.222000000
C     4.154000000     6.348000000     2.861000000
H     3.951000000     7.379000000     2.584000000
C     4.339000000     5.901000000     4.195000000
H     4.091000000     6.601000000     4.989000000
C     4.705000000     4.582000000     4.445000000
H     4.891000000     4.309000000     5.481000000
C     4.900000000     3.698000000     3.392000000
O     5.233000000     2.410000000     3.610000000
C     4.397000000     1.259000000     3.618000000
C     5.025000000     0.014000000     3.452000000
H     6.082000000    -0.072000000     3.214000000
C     4.289000000    -1.144000000     3.505000000
O     4.934000000    -2.387000000     3.272000000
C     4.323000000    -3.600000000     3.492000000
C     3.838000000    -4.277000000     2.413000000
H     3.868000000    -3.759000000     1.457000000
C     4.241000000    -4.162000000     4.752000000
H     4.612000000    -3.591000000     5.600000000
C     3.720000000    -5.449000000     4.882000000
H     3.702000000    -5.948000000     5.847000000
C     3.352000000    -6.173000000     3.721000000
H     2.893000000    -7.155000000     3.801000000
C     3.429000000    -5.586000000     2.528000000
O     3.163000000    -6.309000000     1.406000000
C     2.073000000    -6.029000000     0.675000000
C     2.133000000    -6.305000000    -0.681000000
H     2.932000000    -6.903000000    -1.112000000
C     1.109000000    -5.908000000    -1.530000000
O     1.144000000    -6.297000000    -2.867000000
C     0.428000000    -5.764000000    -3.928000000
C     0.621000000    -4.477000000    -4.460000000
H     1.370000000    -3.781000000    -4.091000000
C    -0.527000000    -6.627000000    -4.493000000
H    -0.616000000    -7.604000000    -4.026000000
C    -1.297000000    -6.251000000    -5.546000000
H    -2.103000000    -6.928000000    -5.818000000
C    -1.109000000    -5.008000000    -6.198000000
H    -1.582000000    -4.705000000    -7.129000000
C    -0.158000000    -4.162000000    -5.584000000
O     0.205000000    -3.030000000    -6.270000000
C    -0.159000000    -1.799000000    -5.747000000
C     0.644000000    -0.717000000    -6.128000000
H     1.388000000    -0.825000000    -6.914000000
C     0.369000000     0.519000000    -5.569000000
O     1.085000000     1.573000000    -5.911000000
C     0.861000000     2.951000000    -5.796000000
C     0.005000000     3.625000000    -6.690000000
H    -0.432000000     3.001000000    -7.466000000
C    -0.290000000     4.961000000    -6.443000000
H    -1.059000000     5.405000000    -7.071000000
C     0.359000000     5.636000000    -5.449000000
H     0.277000000     6.699000000    -5.235000000
C     1.335000000     5.024000000    -4.668000000
C     1.592000000     3.650000000    -4.845000000
H     2.299000000     3.093000000    -4.235000000
C     2.623000000     0.970000000     0.264000000
H     3.345000000     1.710000000     0.600000000
C     1.243000000     1.077000000     0.599000000
H     0.927000000     1.880000000     1.260000000
C     0.325000000     0.170000000     0.118000000
H    -0.708000000     0.324000000     0.358000000
C     0.770000000    -0.831000000    -0.729000000
H     0.090000000    -1.456000000    -1.302000000
C     2.123000000    -0.970000000    -1.031000000
H     2.597000000    -1.851000000    -1.456000000
C     3.067000000    -0.150000000    -0.433000000
C     4.564000000    -0.403000000    -0.618000000
O     4.933000000    -1.485000000    -1.103000000
O     5.379000000     0.420000000    -0.266000000
O     4.621000000     0.204000000    -6.767000000
H     4.516000000     0.659000000    -5.931000000
H     5.247000000    -0.496000000    -6.582000000
O     6.125000000    -5.628000000     0.278000000
H     5.813000000    -6.523000000     0.146000000
H     5.757000000    -5.135000000    -0.455000000
O     7.066000000    -0.130000000    -2.829000000
H     6.869000000    -0.668000000    -2.062000000
H     7.630000000     0.567000000    -2.494000000
O     7.841000000    -4.053000000     2.220000000
H     8.126000000    -3.545000000     1.460000000
H     7.177000000    -4.649000000     1.874000000
O     7.232000000    -4.787000000    -2.705000000
H     6.533000000    -4.573000000    -2.087000000
H     7.770000000    -3.997000000    -2.741000000
O     4.862000000     2.612000000    -1.565000000
H     3.946000000     2.348000000    -1.656000000
H     5.300000000     1.839000000    -1.209000000
O     8.150000000    -2.703000000     4.759000000
H     7.978000000    -1.762000000     4.729000000
H     7.830000000    -3.032000000     3.919000000
O     7.254000000    -1.888000000     0.091000000
H     7.416000000    -1.052000000     0.528000000
H     6.345000000    -1.831000000    -0.204000000
O    10.367000000    -3.857000000    -0.057000000
H    10.340000000    -3.328000000     0.740000000
H     9.561000000    -3.633000000    -0.522000000
O     8.810000000     1.712000000     2.633000000
H     9.766000000     1.769000000     2.653000000
H     8.598000000     1.582000000     1.709000000
O     7.846000000     1.117000000     0.209000000
H     8.397000000     1.143000000    -0.573000000
H     7.011000000     0.764000000    -0.099000000
O     4.596000000    -4.028000000    -1.274000000
H     3.653000000    -4.001000000    -1.107000000
H     4.875000000    -3.114000000    -1.219000000
O     8.282000000     0.897000000     5.068000000
H     8.275000000     1.159000000     4.148000000
H     8.799000000     1.574000000     5.506000000
O     8.326000000     2.270000000    -2.295000000
H     9.054000000     2.778000000    -2.653000000
H     7.857000000     2.886000000    -1.733000000
O     6.689000000     4.485000000    -1.777000000
H     6.038000000     3.886000000    -1.411000000
H     6.409000000     4.618000000    -2.683000000
O    10.355000000    -1.485000000     1.566000000
H    10.346000000    -1.255000000     2.495000000
H    10.587000000    -0.671000000     1.119000000
O     4.452000000     0.283000000    -3.894000000
H     3.895000000    -0.328000000    -3.412000000
H     5.341000000     0.076000000    -3.606000000
O     8.979000000    -2.122000000    -2.013000000
H     8.480000000    -1.940000000    -1.217000000
H     9.096000000    -1.265000000    -2.424000000
O     7.307000000    -0.908000000    -5.519000000
H     7.413000000    -0.673000000    -4.597000000
H     7.519000000    -1.841000000    -5.554000000
