215
-1460.58234
C     2.856000000    -0.854000000     3.579000000
H     2.359000000    -1.757000000     3.236000000
C     2.052000000     0.195000000     4.010000000
C     2.608000000     1.423000000     4.303000000
H     2.002000000     2.266000000     4.626000000
C     0.513000000    -0.012000000     4.061000000
O     0.190000000    -1.342000000     4.670000000
H     0.160000000     0.026000000     3.020000000
O    -0.083000000     1.145000000     4.726000000
C    -1.178000000     1.633000000     4.157000000
C    -1.055000000     2.854000000     3.465000000
H    -0.108000000     3.386000000     3.478000000
C    -2.091000000     3.363000000     2.697000000
O    -1.788000000     4.461000000     1.901000000
C    -3.291000000     2.711000000     2.620000000
C    -4.336000000     3.074000000     1.614000000
H    -5.271000000     2.624000000     1.956000000
C    -4.048000000     2.545000000     0.219000000
C    -4.522000000     1.272000000    -0.108000000
H    -5.079000000     0.664000000     0.599000000
H    -4.521000000     4.150000000     1.578000000
C    -3.459000000     1.517000000     3.381000000
H    -4.450000000     1.069000000     3.408000000
C    -2.367000000     0.937000000     4.106000000
C    -2.535000000    -0.463000000     4.727000000
H    -3.583000000    -0.683000000     4.942000000
H    -2.050000000    -0.522000000     5.704000000
C    -2.095000000    -1.588000000     3.923000000
C    -3.003000000    -2.247000000     3.089000000
H    -4.026000000    -1.880000000     3.076000000
C    -0.749000000    -2.058000000     3.954000000
C    -0.377000000    -3.134000000     3.203000000
H     0.651000000    -3.477000000     3.120000000
C    -1.255000000    -3.814000000     2.393000000
O    -0.833000000    -4.797000000     1.482000000
C    -0.446000000    -4.285000000     0.222000000
C     0.857000000    -4.950000000    -0.233000000
C     1.266000000    -4.884000000    -1.538000000
H     0.547000000    -4.579000000    -2.294000000
C     1.793000000    -5.289000000     0.764000000
H     1.599000000    -5.200000000     1.830000000
O    -1.517000000    -4.626000000    -0.709000000
H    -0.315000000    -3.196000000     0.306000000
C    -2.606000000    -3.343000000     2.385000000
C    -3.565000000    -4.022000000     1.481000000
H    -4.551000000    -3.923000000     1.938000000
H    -3.352000000    -5.085000000     1.351000000
C    -3.510000000    -3.445000000     0.090000000
C    -4.366000000    -2.352000000    -0.205000000
H    -5.156000000    -2.056000000     0.480000000
C    -2.578000000    -3.819000000    -0.923000000
C    -2.472000000    -3.150000000    -2.108000000
H    -1.617000000    -3.338000000    -2.753000000
C    -3.358000000    -2.126000000    -2.423000000
O    -3.149000000    -1.472000000    -3.620000000
C    -2.466000000    -0.159000000    -3.534000000
C    -1.403000000     0.006000000    -4.633000000
C    -0.450000000    -0.996000000    -4.811000000
H    -0.500000000    -1.938000000    -4.269000000
C    -1.321000000     1.204000000    -5.352000000
H    -2.023000000     2.011000000    -5.158000000
O    -3.319000000     0.973000000    -3.585000000
H    -1.851000000    -0.185000000    -2.623000000
C    -4.280000000    -1.697000000    -1.425000000
C    -5.060000000    -0.541000000    -1.736000000
H    -6.037000000    -0.524000000    -1.250000000
H    -5.338000000    -0.555000000    -2.792000000
C    -4.411000000     0.780000000    -1.465000000
C    -3.749000000     1.598000000    -2.426000000
C    -3.192000000     2.811000000    -2.019000000
H    -2.697000000     3.379000000    -2.802000000
C    -3.306000000     3.292000000    -0.697000000
O    -2.677000000     4.389000000    -0.289000000
C    -1.545000000     4.093000000     0.543000000
H    -1.304000000     3.020000000     0.563000000
C    -0.270000000     4.783000000     0.026000000
C     0.764000000     5.234000000     0.855000000
H     0.673000000     5.122000000     1.933000000
C    -0.026000000     4.659000000    -1.329000000
H    -0.763000000     4.254000000    -2.018000000
C     1.199000000     5.123000000    -1.853000000
O     1.541000000     5.169000000    -3.195000000
C     2.197000000     5.600000000    -1.021000000
H     3.161000000     5.915000000    -1.414000000
C     1.951000000     5.714000000     0.371000000
O     3.003000000     6.093000000     1.219000000
C     3.191000000     5.684000000     2.560000000
C     3.570000000     4.415000000     2.873000000
H     3.815000000     3.717000000     2.076000000
C     2.832000000     6.552000000     3.558000000
H     2.393000000     7.424000000     3.081000000
C     3.011000000     6.257000000     4.873000000
H     2.612000000     6.950000000     5.610000000
C     3.597000000     5.012000000     5.201000000
H     3.840000000     4.808000000     6.241000000
C     3.926000000     4.071000000     4.223000000
O     4.551000000     2.860000000     4.514000000
C     4.018000000     1.606000000     4.272000000
C     4.782000000     0.529000000     3.920000000
H     5.856000000     0.593000000     3.759000000
C     4.229000000    -0.704000000     3.590000000
O     5.072000000    -1.743000000     3.384000000
C     4.786000000    -3.082000000     3.493000000
C     4.666000000    -3.883000000     2.371000000
H     4.881000000    -3.436000000     1.404000000
C     4.568000000    -3.647000000     4.778000000
H     4.818000000    -3.114000000     5.692000000
C     4.184000000    -4.981000000     4.938000000
H     4.026000000    -5.345000000     5.950000000
C     3.816000000    -5.730000000     3.785000000
H     3.366000000    -6.708000000     3.934000000
C     4.179000000    -5.199000000     2.530000000
O     3.970000000    -6.008000000     1.383000000
C     3.032000000    -5.757000000     0.380000000
C     3.388000000    -5.817000000    -0.965000000
H     4.266000000    -6.400000000    -1.231000000
C     2.527000000    -5.330000000    -1.987000000
O     2.884000000    -5.439000000    -3.293000000
C     2.043000000    -4.963000000    -4.240000000
C     2.008000000    -3.614000000    -4.553000000
H     2.637000000    -2.915000000    -4.009000000
C     1.244000000    -5.829000000    -4.953000000
H     1.398000000    -6.866000000    -4.664000000
C     0.572000000    -5.382000000    -6.133000000
H     0.080000000    -6.139000000    -6.737000000
C     0.411000000    -4.033000000    -6.330000000
H    -0.195000000    -3.680000000    -7.161000000
C     1.183000000    -3.166000000    -5.602000000
O     1.370000000    -1.911000000    -6.069000000
C     0.524000000    -0.823000000    -5.770000000
C     0.578000000     0.334000000    -6.515000000
H     1.390000000     0.500000000    -7.219000000
C    -0.291000000     1.398000000    -6.234000000
O    -0.153000000     2.571000000    -6.887000000
C    -0.249000000     3.735000000    -6.089000000
C    -1.211000000     4.668000000    -6.314000000
H    -1.879000000     4.654000000    -7.171000000
C    -1.268000000     5.767000000    -5.454000000
H    -2.082000000     6.484000000    -5.513000000
C    -0.357000000     6.039000000    -4.401000000
H    -0.368000000     6.822000000    -3.647000000
C     0.611000000     5.033000000    -4.195000000
C     0.672000000     3.895000000    -5.036000000
H     1.379000000     3.100000000    -4.809000000
C     2.644000000     0.695000000     0.550000000
H     3.398000000     1.147000000     1.189000000
C     1.283000000     1.040000000     0.723000000
H     1.023000000     1.767000000     1.489000000
C     0.287000000     0.244000000     0.015000000
H    -0.721000000     0.371000000     0.316000000
C     0.694000000    -0.789000000    -0.806000000
H    -0.050000000    -1.438000000    -1.260000000
C     2.053000000    -1.020000000    -0.995000000
H     2.317000000    -1.806000000    -1.699000000
C     3.086000000    -0.293000000    -0.357000000
C     4.516000000    -0.501000000    -0.805000000
O     4.835000000    -1.574000000    -1.283000000
O     5.323000000     0.429000000    -0.818000000
O     3.671000000     2.117000000    -4.271000000
H     2.874000000     1.806000000    -3.842000000
H     3.936000000     2.881000000    -3.759000000
O     7.632000000    -2.275000000     4.327000000
H     6.784000000    -1.832000000     4.303000000
H     7.789000000    -2.443000000     5.257000000
O     9.878000000    -0.186000000     2.401000000
H     9.080000000    -0.185000000     1.873000000
H    10.199000000     0.715000000     2.352000000
O     8.260000000    -2.626000000    -2.212000000
H     7.748000000    -2.604000000    -1.404000000
H     9.061000000    -3.094000000    -1.975000000
O     7.608000000     2.721000000     2.013000000
H     7.928000000     3.613000000     2.150000000
H     6.941000000     2.808000000     1.332000000
O     7.937000000    -0.253000000    -4.830000000
H     7.378000000    -1.015000000    -4.680000000
H     7.407000000     0.492000000    -4.545000000
O     6.052000000     1.088000000    -3.103000000
H     5.768000000     0.816000000    -2.230000000
H     5.248000000     1.104000000    -3.622000000
O     7.310000000     0.324000000     1.248000000
H     7.495000000     1.140000000     1.712000000
H     6.693000000     0.574000000     0.560000000
O     8.018000000     3.003000000    -3.922000000
H     7.804000000     2.813000000    -4.836000000
H     7.768000000     2.211000000    -3.448000000
O     6.706000000     2.034000000    -6.191000000
H     6.351000000     2.881000000    -6.462000000
H     5.952000000     1.444000000    -6.203000000
O     8.484000000     0.647000000    -1.814000000
H     8.721000000    -0.235000000    -1.528000000
H     7.736000000     0.516000000    -2.397000000
O     4.337000000     0.411000000    -6.135000000
H     4.511000000    -0.517000000    -5.983000000
H     3.784000000     0.675000000    -5.399000000
O     5.531000000     3.001000000     0.120000000
H     6.005000000     3.552000000    -0.503000000
H     5.366000000     2.187000000    -0.357000000
O     5.131000000    -3.179000000    -3.229000000
H     4.348000000    -3.728000000    -3.192000000
H     5.018000000    -2.553000000    -2.514000000
O     6.994000000    -2.157000000     0.279000000
H     7.124000000    -1.307000000     0.698000000
H     6.231000000    -2.032000000    -0.286000000
O     8.355000000    -3.840000000     1.993000000
H     7.729000000    -3.340000000     1.469000000
H     8.496000000    -3.304000000     2.773000000
O     6.228000000     4.261000000    -2.110000000
H     5.459000000     4.390000000    -2.664000000
H     6.951000000     4.145000000    -2.727000000
O     1.162000000     1.244000000    -3.037000000
H     0.827000000     0.445000000    -2.631000000
H     1.225000000     1.871000000    -2.317000000
O     5.319000000    -1.937000000    -5.731000000
H     5.354000000    -2.049000000    -4.781000000
H     5.086000000    -2.803000000    -6.065000000
