215
-1444.00763
C    -4.698000000    -1.828000000    -2.081000000
H    -4.721000000    -0.887000000    -2.624000000
C    -4.577000000    -1.867000000    -0.617000000
C    -4.504000000    -3.061000000     0.021000000
H    -4.313000000    -3.086000000     1.091000000
C    -4.235000000    -0.506000000     0.135000000
O    -4.885000000     0.548000000    -0.546000000
H    -3.136000000    -0.463000000     0.105000000
O    -4.763000000    -0.606000000     1.462000000
C    -4.003000000    -0.007000000     2.429000000
C    -3.231000000    -0.855000000     3.199000000
H    -3.294000000    -1.928000000     3.041000000
C    -2.301000000    -0.384000000     4.066000000
O    -1.339000000    -1.248000000     4.570000000
C    -2.083000000     1.027000000     4.217000000
C    -1.000000000     1.703000000     5.145000000
H    -1.388000000     2.671000000     5.467000000
C     0.346000000     1.856000000     4.430000000
C     0.713000000     3.072000000     3.782000000
H    -0.103000000     3.787000000     3.849000000
H    -1.024000000     1.042000000     6.015000000
C    -2.907000000     1.891000000     3.457000000
H    -2.805000000     2.967000000     3.571000000
C    -3.929000000     1.388000000     2.630000000
C    -4.789000000     2.276000000     1.741000000
H    -5.010000000     3.185000000     2.305000000
H    -5.772000000     1.847000000     1.537000000
C    -4.008000000     2.595000000     0.493000000
C    -3.120000000     3.689000000     0.502000000
H    -2.953000000     4.352000000     1.347000000
C    -4.183000000     1.770000000    -0.633000000
C    -3.545000000     2.126000000    -1.777000000
H    -3.623000000     1.392000000    -2.574000000
C    -2.710000000     3.232000000    -1.841000000
O    -1.978000000     3.340000000    -2.949000000
C    -0.641000000     2.907000000    -3.002000000
C    -0.247000000     2.161000000    -4.273000000
C     1.043000000     2.156000000    -4.815000000
H     1.771000000     2.757000000    -4.277000000
C    -1.145000000     1.217000000    -4.742000000
H    -2.141000000     1.206000000    -4.307000000
O     0.162000000     4.104000000    -2.803000000
H    -0.551000000     2.191000000    -2.172000000
C    -2.418000000     3.987000000    -0.659000000
C    -1.503000000     5.188000000    -0.816000000
H    -1.793000000     5.933000000    -0.072000000
H    -1.573000000     5.582000000    -1.832000000
C    -0.023000000     4.767000000    -0.553000000
C     0.487000000     4.911000000     0.723000000
H    -0.040000000     5.344000000     1.570000000
C     0.765000000     4.251000000    -1.534000000
C     1.991000000     3.739000000    -1.276000000
H     2.494000000     3.393000000    -2.176000000
C     2.533000000     3.827000000     0.012000000
O     3.735000000     3.310000000     0.288000000
C     3.795000000     1.999000000     0.906000000
C     4.766000000     1.042000000     0.331000000
C     4.910000000     0.989000000    -1.080000000
H     4.323000000     1.698000000    -1.658000000
C     5.422000000     0.007000000     1.077000000
H     5.455000000     0.013000000     2.163000000
O     4.006000000     2.204000000     2.340000000
H     2.761000000     1.624000000     0.906000000
C     1.787000000     4.466000000     0.973000000
C     2.314000000     4.465000000     2.421000000
H     1.942000000     5.334000000     2.968000000
H     3.370000000     4.741000000     2.400000000
C     1.973000000     3.225000000     3.147000000
C     2.865000000     2.197000000     3.141000000
C     2.449000000     1.004000000     3.737000000
H     3.150000000     0.175000000     3.687000000
C     1.281000000     0.843000000     4.426000000
O     0.874000000    -0.380000000     4.886000000
C     0.003000000    -1.134000000     4.029000000
H    -0.073000000    -0.560000000     3.094000000
C     0.534000000    -2.510000000     3.661000000
C    -0.470000000    -3.541000000     3.395000000
H    -1.537000000    -3.434000000     3.577000000
C     1.919000000    -2.834000000     3.524000000
H     2.635000000    -2.073000000     3.822000000
C     2.276000000    -4.109000000     3.227000000
O     3.582000000    -4.470000000     3.144000000
C     1.344000000    -5.107000000     2.939000000
H     1.620000000    -6.126000000     2.678000000
C    -0.010000000    -4.786000000     2.933000000
O    -0.837000000    -5.820000000     2.689000000
C    -2.180000000    -5.614000000     2.476000000
C    -2.759000000    -5.554000000     1.228000000
H    -2.158000000    -5.631000000     0.325000000
C    -2.907000000    -5.647000000     3.657000000
H    -2.403000000    -5.592000000     4.618000000
C    -4.296000000    -5.685000000     3.611000000
H    -4.876000000    -5.680000000     4.530000000
C    -4.896000000    -5.657000000     2.331000000
H    -5.979000000    -5.606000000     2.256000000
C    -4.148000000    -5.560000000     1.174000000
O    -4.744000000    -5.431000000    -0.017000000
C    -4.659000000    -4.226000000    -0.694000000
C    -5.010000000    -4.248000000    -1.996000000
H    -5.175000000    -5.192000000    -2.508000000
C    -4.938000000    -3.024000000    -2.714000000
O    -5.197000000    -2.944000000    -4.105000000
C    -4.805000000    -1.821000000    -4.839000000
C    -3.522000000    -1.722000000    -5.407000000
H    -2.761000000    -2.497000000    -5.361000000
C    -5.782000000    -0.865000000    -5.166000000
H    -6.814000000    -0.860000000    -4.824000000
C    -5.392000000     0.269000000    -5.850000000
H    -6.109000000     1.083000000    -5.911000000
C    -4.086000000     0.417000000    -6.357000000
H    -3.753000000     1.362000000    -6.779000000
C    -3.144000000    -0.546000000    -6.136000000
O    -1.846000000    -0.326000000    -6.534000000
C    -0.864000000     0.465000000    -5.885000000
C     0.376000000     0.512000000    -6.417000000
H     0.594000000    -0.075000000    -7.305000000
C     1.364000000     1.368000000    -5.885000000
O     2.660000000     1.408000000    -6.349000000
C     3.720000000     1.633000000    -5.503000000
C     4.341000000     0.652000000    -4.751000000
H     3.801000000    -0.291000000    -4.764000000
C     4.333000000     2.893000000    -5.608000000
H     4.014000000     3.722000000    -6.235000000
C     5.436000000     3.121000000    -4.888000000
H     5.911000000     4.098000000    -4.913000000
C     5.977000000     2.239000000    -3.951000000
H     6.895000000     2.444000000    -3.406000000
C     5.408000000     0.983000000    -3.867000000
O     5.775000000    -0.013000000    -3.043000000
C     5.669000000     0.046000000    -1.705000000
C     6.400000000    -0.855000000    -0.889000000
H     7.030000000    -1.615000000    -1.344000000
C     6.299000000    -0.862000000     0.501000000
O     7.091000000    -1.736000000     1.219000000
C     6.525000000    -2.383000000     2.287000000
C     7.157000000    -2.437000000     3.557000000
H     8.151000000    -2.003000000     3.642000000
C     6.647000000    -3.040000000     4.645000000
H     7.116000000    -3.009000000     5.625000000
C     5.360000000    -3.692000000     4.509000000
H     4.928000000    -4.158000000     5.390000000
C     4.635000000    -3.617000000     3.312000000
C     5.280000000    -3.056000000     2.160000000
H     4.842000000    -3.083000000     1.166000000
C     1.107000000    -2.710000000    -0.324000000
H     1.004000000    -3.782000000    -0.177000000
C     0.240000000    -1.773000000     0.154000000
H    -0.620000000    -2.073000000     0.747000000
C     0.329000000    -0.414000000    -0.067000000
H    -0.359000000     0.258000000     0.399000000
C     1.337000000     0.021000000    -0.833000000
H     1.458000000     1.092000000    -0.975000000
C     2.214000000    -0.884000000    -1.433000000
H     2.847000000    -0.454000000    -2.205000000
C     2.114000000    -2.267000000    -1.216000000
C     2.864000000    -3.260000000    -2.129000000
O     3.481000000    -2.876000000    -3.080000000
O     2.916000000    -4.412000000    -1.809000000
O     4.061000000    -6.549000000    -2.706000000
H     3.776000000    -5.714000000    -2.334000000
H     3.260000000    -6.943000000    -3.052000000
O     3.418000000    -6.114000000     0.113000000
H     3.083000000    -5.518000000    -0.557000000
H     3.434000000    -5.589000000     0.913000000
O    -1.891000000    -6.612000000    -2.153000000
H    -0.992000000    -6.305000000    -2.276000000
H    -2.435000000    -5.863000000    -2.398000000
O     1.631000000    -4.977000000    -6.641000000
H     0.781000000    -5.410000000    -6.727000000
H     2.105000000    -5.220000000    -7.436000000
O     6.368000000    -6.139000000     0.706000000
H     6.638000000    -6.789000000     0.058000000
H     6.182000000    -5.353000000     0.193000000
O     6.152000000    -4.339000000    -1.325000000
H     6.615000000    -4.276000000    -2.160000000
H     5.235000000    -4.468000000    -1.569000000
O     1.419000000    -8.239000000     0.493000000
H     0.947000000    -8.149000000     1.320000000
H     2.192000000    -7.683000000     0.596000000
O     5.199000000    -6.396000000    -5.771000000
H     6.082000000    -6.269000000    -5.422000000
H     4.637000000    -5.877000000    -5.196000000
O     6.497000000    -2.975000000    -5.461000000
H     5.603000000    -3.301000000    -5.562000000
H     6.713000000    -3.149000000    -4.544000000
O     4.565000000    -8.803000000    -0.382000000
H     4.963000000    -8.795000000    -1.253000000
H     4.244000000    -7.910000000    -0.257000000
O     5.982000000    -8.448000000    -2.679000000
H     5.492000000    -7.626000000    -2.702000000
H     6.805000000    -8.224000000    -2.242000000
O    -0.475000000    -1.541000000    -2.687000000
H    -0.114000000    -1.254000000    -3.525000000
H     0.131000000    -1.192000000    -2.033000000
O     8.676000000    -3.763000000    -0.415000000
H     7.777000000    -3.960000000    -0.151000000
H     8.752000000    -4.128000000    -1.297000000
O     4.513000000    -4.449000000    -7.981000000
H     4.445000000    -3.503000000    -8.111000000
H     4.418000000    -4.568000000    -7.036000000
O     0.444000000    -5.458000000    -2.520000000
H     1.237000000    -5.118000000    -2.107000000
H     0.763000000    -6.073000000    -3.181000000
O     3.761000000    -4.153000000    -5.243000000
H     3.629000000    -3.781000000    -4.371000000
H     2.895000000    -4.471000000    -5.501000000
O     1.649000000    -7.552000000    -3.627000000
H     1.733000000    -8.086000000    -4.417000000
H     1.228000000    -8.130000000    -2.990000000
O    -1.740000000    -3.988000000    -3.231000000
H    -1.801000000    -3.052000000    -3.040000000
H    -0.871000000    -4.240000000    -2.920000000
O     1.556000000    -1.687000000    -4.749000000
H     1.804000000    -2.166000000    -5.539000000
H     2.135000000    -2.031000000    -4.069000000
