215
-1448.22417
C     2.724000000    -1.228000000     3.662000000
H     2.231000000    -2.143000000     3.346000000
C     1.906000000    -0.142000000     4.012000000
C     2.501000000     1.055000000     4.297000000
H     1.880000000     1.859000000     4.682000000
C     0.356000000    -0.224000000     4.018000000
O     0.064000000    -1.591000000     4.523000000
H     0.117000000    -0.161000000     2.947000000
O    -0.271000000     0.785000000     4.815000000
C    -1.373000000     1.379000000     4.171000000
C    -1.154000000     2.555000000     3.537000000
H    -0.213000000     3.087000000     3.646000000
C    -2.157000000     3.035000000     2.661000000
O    -1.740000000     4.117000000     1.887000000
C    -3.403000000     2.429000000     2.568000000
C    -4.398000000     2.997000000     1.610000000
H    -5.414000000     2.722000000     1.901000000
C    -4.162000000     2.518000000     0.180000000
C    -4.757000000     1.340000000    -0.239000000
H    -5.442000000     0.777000000     0.390000000
H    -4.368000000     4.083000000     1.720000000
C    -3.581000000     1.282000000     3.348000000
H    -4.589000000     0.895000000     3.216000000
C    -2.561000000     0.655000000     4.090000000
C    -2.801000000    -0.706000000     4.770000000
H    -3.813000000    -0.885000000     5.140000000
H    -2.216000000    -0.732000000     5.691000000
C    -2.352000000    -1.850000000     3.818000000
C    -3.264000000    -2.457000000     3.056000000
H    -4.239000000    -1.984000000     2.965000000
C    -1.006000000    -2.223000000     3.815000000
C    -0.664000000    -3.407000000     3.150000000
H     0.388000000    -3.603000000     2.960000000
C    -1.607000000    -4.083000000     2.419000000
O    -1.200000000    -4.982000000     1.439000000
C    -0.707000000    -4.432000000     0.151000000
C     0.657000000    -4.987000000    -0.152000000
C     1.140000000    -4.869000000    -1.503000000
H     0.491000000    -4.634000000    -2.342000000
C     1.497000000    -5.485000000     0.831000000
H     1.216000000    -5.640000000     1.869000000
O    -1.624000000    -4.654000000    -0.895000000
H    -0.674000000    -3.342000000     0.295000000
C    -2.825000000    -3.479000000     2.243000000
C    -3.756000000    -4.033000000     1.214000000
H    -4.780000000    -3.917000000     1.575000000
H    -3.630000000    -5.117000000     1.177000000
C    -3.587000000    -3.370000000    -0.174000000
C    -4.433000000    -2.320000000    -0.519000000
H    -5.251000000    -1.985000000     0.112000000
C    -2.579000000    -3.673000000    -1.113000000
C    -2.393000000    -2.991000000    -2.314000000
H    -1.592000000    -3.190000000    -3.022000000
C    -3.225000000    -1.998000000    -2.592000000
O    -2.930000000    -1.303000000    -3.728000000
C    -2.385000000     0.033000000    -3.644000000
C    -1.385000000     0.223000000    -4.730000000
C    -0.458000000    -0.837000000    -5.102000000
H    -0.383000000    -1.775000000    -4.558000000
C    -1.291000000     1.479000000    -5.374000000
H    -2.011000000     2.276000000    -5.204000000
O    -3.433000000     1.063000000    -3.712000000
H    -1.772000000     0.180000000    -2.743000000
C    -4.265000000    -1.636000000    -1.711000000
C    -5.222000000    -0.476000000    -1.872000000
H    -6.129000000    -0.635000000    -1.286000000
H    -5.588000000    -0.366000000    -2.895000000
C    -4.554000000     0.816000000    -1.483000000
C    -3.719000000     1.486000000    -2.433000000
C    -3.122000000     2.695000000    -2.028000000
H    -2.424000000     3.247000000    -2.652000000
C    -3.277000000     3.168000000    -0.738000000
O    -2.544000000     4.251000000    -0.315000000
C    -1.407000000     3.967000000     0.502000000
H    -1.197000000     2.910000000     0.283000000
C    -0.177000000     4.757000000     0.129000000
C     0.840000000     5.085000000     1.015000000
H     0.606000000     4.879000000     2.057000000
C     0.088000000     5.018000000    -1.244000000
H    -0.666000000     4.635000000    -1.927000000
C     1.346000000     5.562000000    -1.659000000
O     1.564000000     5.816000000    -3.005000000
C     2.339000000     5.909000000    -0.730000000
H     3.262000000     6.379000000    -1.058000000
C     2.109000000     5.620000000     0.611000000
O     3.113000000     5.955000000     1.473000000
C     3.201000000     5.513000000     2.774000000
C     3.745000000     4.219000000     2.868000000
H     4.002000000     3.619000000     1.998000000
C     2.993000000     6.370000000     3.858000000
H     2.736000000     7.414000000     3.698000000
C     3.346000000     5.931000000     5.100000000
H     3.321000000     6.490000000     6.032000000
C     3.880000000     4.608000000     5.193000000
H     4.302000000     4.292000000     6.144000000
C     4.019000000     3.773000000     4.128000000
O     4.559000000     2.495000000     4.255000000
C     3.908000000     1.228000000     4.116000000
C     4.720000000     0.130000000     3.883000000
H     5.786000000     0.279000000     3.733000000
C     4.147000000    -1.108000000     3.757000000
O     4.965000000    -2.131000000     3.495000000
C     4.526000000    -3.411000000     3.547000000
C     4.325000000    -4.168000000     2.389000000
H     4.500000000    -3.710000000     1.419000000
C     4.697000000    -4.054000000     4.758000000
H     4.865000000    -3.396000000     5.607000000
C     4.366000000    -5.431000000     4.858000000
H     4.380000000    -5.850000000     5.861000000
C     3.933000000    -6.138000000     3.749000000
H     3.635000000    -7.184000000     3.752000000
C     3.913000000    -5.475000000     2.521000000
O     3.645000000    -6.279000000     1.449000000
C     2.773000000    -5.928000000     0.477000000
C     3.276000000    -5.589000000    -0.750000000
H     4.330000000    -5.778000000    -0.933000000
C     2.513000000    -4.976000000    -1.711000000
O     3.023000000    -4.553000000    -2.946000000
C     2.293000000    -4.287000000    -4.065000000
C     2.253000000    -2.959000000    -4.654000000
H     2.708000000    -2.145000000    -4.095000000
C     1.694000000    -5.355000000    -4.748000000
H     1.834000000    -6.314000000    -4.257000000
C     1.008000000    -5.170000000    -5.898000000
H     0.635000000    -6.071000000    -6.378000000
C     0.979000000    -3.929000000    -6.496000000
H     0.497000000    -3.804000000    -7.462000000
C     1.558000000    -2.792000000    -5.902000000
O     1.376000000    -1.525000000    -6.439000000
C     0.503000000    -0.546000000    -6.087000000
C     0.690000000     0.784000000    -6.531000000
H     1.474000000     0.999000000    -7.253000000
C    -0.161000000     1.839000000    -6.182000000
O    -0.017000000     3.149000000    -6.679000000
C    -0.124000000     4.264000000    -5.872000000
C    -1.072000000     5.217000000    -6.157000000
H    -1.702000000     5.089000000    -7.033000000
C    -1.211000000     6.347000000    -5.343000000
H    -2.079000000     6.963000000    -5.565000000
C    -0.345000000     6.511000000    -4.276000000
H    -0.423000000     7.343000000    -3.580000000
C     0.646000000     5.579000000    -4.047000000
C     0.775000000     4.436000000    -4.812000000
H     1.571000000     3.742000000    -4.559000000
C     2.264000000     0.856000000     0.462000000
H     2.809000000     1.551000000     1.095000000
C     0.917000000     0.941000000     0.476000000
H     0.373000000     1.623000000     1.124000000
C     0.147000000    -0.050000000    -0.203000000
H    -1.015000000    -0.178000000    -0.114000000
C     0.742000000    -0.901000000    -1.126000000
H     0.258000000    -1.646000000    -1.752000000
C     2.150000000    -0.934000000    -1.143000000
H     2.655000000    -1.696000000    -1.730000000
C     2.946000000    -0.133000000    -0.280000000
C     4.420000000    -0.192000000    -0.336000000
O     5.006000000    -0.998000000    -0.963000000
O     5.025000000     0.629000000     0.299000000
O     3.194000000     1.616000000    -4.903000000
H     2.640000000     1.242000000    -5.588000000
H     2.583000000     1.866000000    -4.210000000
O     8.865000000    -1.223000000     4.105000000
H     8.238000000    -1.307000000     3.387000000
H     9.695000000    -1.016000000     3.675000000
O     9.753000000     2.268000000     2.114000000
H     8.968000000     2.540000000     2.590000000
H     9.491000000     1.467000000     1.659000000
O     5.556000000    -5.462000000    -3.976000000
H     4.628000000    -5.395000000    -4.202000000
H     5.693000000    -4.777000000    -3.321000000
O     9.470000000    -0.080000000     0.555000000
H     8.570000000    -0.227000000     0.847000000
H    10.009000000    -0.532000000     1.203000000
O     6.688000000     5.846000000     1.320000000
H     6.941000000     5.930000000     0.401000000
H     6.295000000     4.976000000     1.382000000
O     9.653000000     0.084000000    -2.104000000
H    10.414000000     0.663000000    -2.147000000
H     9.501000000    -0.043000000    -1.168000000
O     6.115000000     2.053000000    -5.295000000
H     5.854000000     2.159000000    -4.380000000
H     5.359000000     1.640000000    -5.713000000
O     7.058000000     2.446000000     2.377000000
H     6.469000000     1.778000000     2.729000000
H     6.699000000     2.651000000     1.514000000
O     6.782000000     0.382000000    -2.592000000
H     6.328000000    -0.171000000    -1.956000000
H     7.638000000     0.548000000    -2.196000000
O     4.602000000    -0.691000000    -6.567000000
H     4.756000000    -1.250000000    -5.805000000
H     3.727000000    -0.934000000    -6.869000000
O     5.612000000     3.073000000     0.189000000
H     5.586000000     3.296000000    -0.742000000
H     5.549000000     2.118000000     0.208000000
O     6.099000000    -3.445000000    -2.028000000
H     6.973000000    -3.640000000    -1.688000000
H     5.771000000    -2.749000000    -1.460000000
O     6.975000000    -1.187000000     1.447000000
H     6.828000000    -1.986000000     0.940000000
H     6.245000000    -0.615000000     1.211000000
O     8.452000000    -4.172000000    -0.792000000
H     8.655000000    -3.914000000     0.107000000
H     9.306000000    -4.346000000    -1.189000000
O     4.981000000     4.994000000    -3.242000000
H     5.004000000     4.038000000    -3.199000000
H     4.594000000     5.185000000    -4.097000000
O     1.241000000     1.598000000    -2.791000000
H     1.258000000     2.066000000    -1.956000000
H     1.324000000     0.675000000    -2.550000000
O     5.169000000    -1.734000000    -4.193000000
H     5.756000000    -2.339000000    -3.740000000
H     5.149000000    -0.956000000    -3.635000000
O     5.107000000     2.346000000    -2.320000000
H     5.840000000     1.746000000    -2.458000000
H     4.328000000     1.815000000    -2.485000000
