215
-1431.64646
C     1.809000000    -3.177000000     3.632000000
H     1.366000000    -3.870000000     2.921000000
C     1.074000000    -2.061000000     4.154000000
C     1.673000000    -1.233000000     5.098000000
H     1.167000000    -0.364000000     5.511000000
C    -0.334000000    -1.800000000     3.634000000
O    -1.038000000    -3.015000000     3.598000000
H    -0.273000000    -1.253000000     2.681000000
O    -1.090000000    -0.938000000     4.560000000
C    -1.912000000     0.142000000     4.196000000
C    -1.300000000     1.356000000     4.032000000
H    -0.254000000     1.499000000     4.290000000
C    -2.021000000     2.375000000     3.515000000
O    -1.350000000     3.536000000     3.324000000
C    -3.343000000     2.196000000     2.960000000
C    -3.968000000     3.336000000     2.168000000
H    -5.048000000     3.250000000     2.301000000
C    -3.463000000     3.284000000     0.734000000
C    -4.169000000     2.558000000    -0.270000000
H    -5.126000000     2.143000000     0.038000000
H    -3.708000000     4.280000000     2.653000000
C    -3.928000000     0.919000000     3.088000000
H    -4.907000000     0.692000000     2.673000000
C    -3.208000000    -0.094000000     3.701000000
C    -3.721000000    -1.533000000     3.786000000
H    -4.809000000    -1.552000000     3.696000000
H    -3.376000000    -1.952000000     4.733000000
C    -3.190000000    -2.430000000     2.660000000
C    -4.012000000    -2.530000000     1.508000000
H    -5.011000000    -2.122000000     1.377000000
C    -1.956000000    -3.052000000     2.621000000
C    -1.611000000    -3.812000000     1.492000000
H    -0.615000000    -4.238000000     1.584000000
C    -2.337000000    -3.892000000     0.345000000
O    -1.829000000    -4.628000000    -0.714000000
C    -1.222000000    -3.691000000    -1.661000000
C     0.086000000    -4.286000000    -2.182000000
C     0.439000000    -4.206000000    -3.555000000
H    -0.223000000    -3.909000000    -4.364000000
C     1.040000000    -4.817000000    -1.280000000
H     0.854000000    -4.899000000    -0.212000000
O    -2.163000000    -3.449000000    -2.735000000
H    -0.960000000    -2.732000000    -1.189000000
C    -3.568000000    -3.214000000     0.359000000
C    -4.417000000    -3.107000000    -0.888000000
H    -5.471000000    -2.943000000    -0.656000000
H    -4.523000000    -4.057000000    -1.415000000
C    -3.938000000    -2.001000000    -1.845000000
C    -4.508000000    -0.693000000    -1.786000000
H    -5.153000000    -0.459000000    -0.943000000
C    -2.913000000    -2.252000000    -2.779000000
C    -2.548000000    -1.224000000    -3.601000000
H    -1.674000000    -1.368000000    -4.230000000
C    -3.148000000     0.055000000    -3.574000000
O    -2.563000000     1.066000000    -4.297000000
C    -1.583000000     1.876000000    -3.587000000
C    -0.338000000     2.096000000    -4.449000000
C     0.203000000     1.071000000    -5.208000000
H    -0.364000000     0.164000000    -5.403000000
C     0.271000000     3.344000000    -4.379000000
H    -0.187000000     4.024000000    -3.665000000
O    -2.204000000     3.076000000    -3.243000000
H    -1.254000000     1.308000000    -2.704000000
C    -4.141000000     0.313000000    -2.618000000
C    -4.702000000     1.707000000    -2.450000000
H    -5.730000000     1.649000000    -2.088000000
H    -4.914000000     2.182000000    -3.410000000
C    -3.887000000     2.592000000    -1.604000000
C    -2.728000000     3.242000000    -1.956000000
C    -1.998000000     3.964000000    -1.065000000
H    -1.065000000     4.449000000    -1.343000000
C    -2.332000000     3.927000000     0.284000000
O    -1.471000000     4.518000000     1.180000000
C    -0.712000000     3.688000000     2.024000000
H    -0.753000000     2.729000000     1.487000000
C     0.758000000     4.099000000     2.184000000
C     1.507000000     4.027000000     3.313000000
H     1.111000000     3.668000000     4.259000000
C     1.421000000     4.582000000     0.993000000
H     0.936000000     4.689000000     0.026000000
C     2.736000000     4.967000000     0.973000000
O     3.369000000     5.357000000    -0.204000000
C     3.496000000     4.826000000     2.135000000
H     4.579000000     4.914000000     2.170000000
C     2.907000000     4.196000000     3.248000000
O     3.799000000     3.790000000     4.248000000
C     3.423000000     2.942000000     5.284000000
C     3.670000000     1.562000000     5.332000000
H     3.919000000     0.998000000     4.437000000
C     2.847000000     3.531000000     6.387000000
H     2.816000000     4.611000000     6.503000000
C     2.392000000     2.773000000     7.466000000
H     1.921000000     3.344000000     8.263000000
C     2.784000000     1.438000000     7.516000000
H     2.459000000     0.841000000     8.365000000
C     3.425000000     0.779000000     6.463000000
O     3.540000000    -0.546000000     6.457000000
C     2.951000000    -1.501000000     5.559000000
C     3.733000000    -2.543000000     5.019000000
H     4.767000000    -2.650000000     5.337000000
C     3.093000000    -3.436000000     4.147000000
O     3.751000000    -4.579000000     3.721000000
C     3.327000000    -5.410000000     2.671000000
C     3.629000000    -5.120000000     1.321000000
H     4.235000000    -4.229000000     1.178000000
C     2.490000000    -6.433000000     2.921000000
H     2.195000000    -6.616000000     3.951000000
C     2.031000000    -7.288000000     1.943000000
H     1.429000000    -8.153000000     2.210000000
C     2.344000000    -7.009000000     0.592000000
H     1.927000000    -7.619000000    -0.205000000
C     3.196000000    -5.976000000     0.313000000
O     3.336000000    -5.611000000    -0.971000000
C     2.284000000    -5.174000000    -1.752000000
C     2.611000000    -5.045000000    -3.074000000
H     3.644000000    -5.242000000    -3.351000000
C     1.699000000    -4.544000000    -3.978000000
O     2.037000000    -4.512000000    -5.363000000
C     1.728000000    -3.460000000    -6.208000000
C     2.202000000    -2.120000000    -5.920000000
H     2.924000000    -1.995000000    -5.118000000
C     0.707000000    -3.680000000    -7.141000000
H     0.288000000    -4.677000000    -7.250000000
C     0.137000000    -2.595000000    -7.802000000
H    -0.550000000    -2.802000000    -8.618000000
C     0.637000000    -1.309000000    -7.592000000
H     0.250000000    -0.459000000    -8.149000000
C     1.644000000    -1.046000000    -6.613000000
O     2.086000000     0.268000000    -6.501000000
C     1.409000000     1.318000000    -5.758000000
C     2.076000000     2.544000000    -5.645000000
H     3.040000000     2.616000000    -6.141000000
C     1.492000000     3.580000000    -4.958000000
O     2.260000000     4.736000000    -4.739000000
C     2.102000000     5.495000000    -3.647000000
C     1.452000000     6.767000000    -3.709000000
H     1.137000000     7.232000000    -4.639000000
C     1.414000000     7.459000000    -2.504000000
H     0.990000000     8.460000000    -2.483000000
C     1.941000000     6.907000000    -1.325000000
H     1.890000000     7.505000000    -0.419000000
C     2.632000000     5.719000000    -1.314000000
C     2.682000000     5.022000000    -2.522000000
H     3.168000000     4.052000000    -2.583000000
C     3.256000000    -0.257000000     1.400000000
H     3.849000000    -0.017000000     2.279000000
C     1.942000000     0.211000000     1.230000000
H     1.467000000     0.898000000     1.926000000
C     1.149000000    -0.309000000     0.219000000
H     0.202000000     0.185000000     0.003000000
C     1.635000000    -1.223000000    -0.714000000
H     1.047000000    -1.524000000    -1.577000000
C     2.927000000    -1.696000000    -0.487000000
H     3.345000000    -2.458000000    -1.139000000
C     3.784000000    -1.207000000     0.520000000
C     5.153000000    -1.605000000     0.552000000
O     5.634000000    -2.454000000    -0.209000000
O     5.920000000    -1.220000000     1.387000000
O     8.131000000     0.550000000     4.755000000
H     7.741000000    -0.181000000     4.276000000
H     8.852000000     0.157000000     5.247000000
O     6.641000000    -7.060000000    -2.576000000
H     7.491000000    -6.918000000    -2.991000000
H     6.228000000    -6.196000000    -2.575000000
O     6.068000000     1.735000000     1.482000000
H     6.130000000     0.792000000     1.327000000
H     5.806000000     1.809000000     2.400000000
O     6.625000000    -3.263000000    -4.355000000
H     7.070000000    -3.765000000    -5.038000000
H     6.589000000    -3.858000000    -3.606000000
O     5.723000000     2.106000000    -3.994000000
H     5.638000000     1.218000000    -4.342000000
H     5.428000000     2.035000000    -3.086000000
O     8.679000000    -1.709000000    -4.005000000
H     7.981000000    -2.322000000    -4.236000000
H     9.433000000    -2.000000000    -4.518000000
O     7.474000000     3.998000000     0.732000000
H     6.832000000     3.294000000     0.827000000
H     7.144000000     4.527000000     0.006000000
O     7.427000000    -0.065000000    -0.876000000
H     8.082000000    -0.679000000    -1.208000000
H     6.953000000    -0.559000000    -0.207000000
O     6.800000000     2.769000000     4.833000000
H     7.691000000     3.111000000     4.760000000
H     6.895000000     1.825000000     4.711000000
O     5.770000000    -4.637000000    -1.693000000
H     4.974000000    -5.033000000    -1.336000000
H     5.802000000    -3.766000000    -1.298000000
O     9.699000000    -0.105000000     1.627000000
H     9.177000000    -0.659000000     2.208000000
H     9.411000000    -0.343000000     0.746000000
O     8.582000000     2.643000000    -1.780000000
H     8.062000000     1.864000000    -1.587000000
H     8.034000000     3.374000000    -1.496000000
O     9.173000000    -5.692000000     2.922000000
H     9.864000000    -6.346000000     2.817000000
H     9.094000000    -5.286000000     2.059000000
O     8.476000000    -3.874000000     0.679000000
H     7.580000000    -3.660000000     0.417000000
H     8.666000000    -3.270000000     1.397000000
O     7.877000000    -2.257000000     2.736000000
H     7.103000000    -1.847000000     2.350000000
H     7.537000000    -2.763000000     3.475000000
O     5.044000000    -0.634000000    -4.047000000
H     5.611000000    -1.405000000    -4.019000000
H     4.870000000    -0.498000000    -4.978000000
O     9.823000000    -1.379000000    -1.608000000
H     9.373000000    -1.509000000    -2.443000000
H    10.693000000    -1.754000000    -1.744000000
O     2.762000000     0.605000000    -2.835000000
H     2.706000000     0.034000000    -2.069000000
H     3.394000000     0.173000000    -3.410000000
O     4.907000000     2.274000000    -1.432000000
H     5.356000000     1.789000000    -0.739000000
H     4.220000000     1.679000000    -1.733000000
