215
-1455.07008
C     1.917000000    -2.682000000     3.978000000
H     1.473000000    -3.457000000     3.359000000
C     1.203000000    -1.581000000     4.452000000
C     1.833000000    -0.582000000     5.339000000
H     1.257000000     0.320000000     5.529000000
C    -0.221000000    -1.434000000     3.932000000
O    -0.871000000    -2.741000000     3.610000000
H    -0.133000000    -0.871000000     2.991000000
O    -1.003000000    -0.640000000     4.819000000
C    -1.830000000     0.242000000     4.266000000
C    -1.406000000     1.548000000     4.186000000
H    -0.440000000     1.810000000     4.611000000
C    -2.220000000     2.546000000     3.597000000
O    -1.584000000     3.716000000     3.275000000
C    -3.425000000     2.175000000     3.003000000
C    -4.187000000     3.192000000     2.189000000
H    -5.262000000     3.017000000     2.268000000
C    -3.767000000     3.115000000     0.659000000
C    -4.464000000     2.221000000    -0.194000000
H    -5.271000000     1.639000000     0.243000000
H    -3.945000000     4.195000000     2.548000000
C    -3.830000000     0.810000000     3.076000000
H    -4.793000000     0.551000000     2.641000000
C    -3.108000000    -0.160000000     3.736000000
C    -3.590000000    -1.610000000     3.796000000
H    -4.670000000    -1.505000000     3.676000000
H    -3.416000000    -2.056000000     4.778000000
C    -3.028000000    -2.361000000     2.578000000
C    -3.862000000    -2.639000000     1.521000000
H    -4.875000000    -2.248000000     1.462000000
C    -1.761000000    -2.953000000     2.559000000
C    -1.286000000    -3.725000000     1.484000000
H    -0.291000000    -4.160000000     1.519000000
C    -2.185000000    -3.962000000     0.415000000
O    -1.590000000    -4.695000000    -0.587000000
C    -1.193000000    -3.950000000    -1.780000000
C     0.213000000    -4.334000000    -2.390000000
C     0.521000000    -4.056000000    -3.687000000
H    -0.293000000    -3.562000000    -4.211000000
C     1.147000000    -4.761000000    -1.480000000
H     0.847000000    -4.861000000    -0.440000000
O    -2.362000000    -3.973000000    -2.719000000
H    -1.119000000    -2.937000000    -1.358000000
C    -3.539000000    -3.524000000     0.505000000
C    -4.390000000    -3.632000000    -0.716000000
H    -5.402000000    -3.517000000    -0.320000000
H    -4.195000000    -4.586000000    -1.210000000
C    -4.056000000    -2.548000000    -1.761000000
C    -4.641000000    -1.247000000    -1.709000000
H    -5.461000000    -1.072000000    -1.017000000
C    -3.110000000    -2.786000000    -2.714000000
C    -2.681000000    -1.763000000    -3.575000000
H    -1.845000000    -1.926000000    -4.250000000
C    -3.190000000    -0.485000000    -3.440000000
O    -2.697000000     0.524000000    -4.199000000
C    -1.761000000     1.409000000    -3.573000000
C    -0.489000000     1.709000000    -4.348000000
C    -0.219000000     0.900000000    -5.456000000
H    -0.925000000     0.106000000    -5.688000000
C     0.492000000     2.542000000    -3.857000000
H     0.330000000     3.136000000    -2.962000000
O    -2.473000000     2.695000000    -3.256000000
H    -1.426000000     0.887000000    -2.665000000
C    -4.185000000    -0.226000000    -2.515000000
C    -4.768000000     1.191000000    -2.459000000
H    -5.794000000     1.038000000    -2.118000000
H    -4.680000000     1.691000000    -3.426000000
C    -4.018000000     2.097000000    -1.482000000
C    -2.939000000     2.823000000    -1.981000000
C    -2.307000000     3.772000000    -1.180000000
H    -1.463000000     4.346000000    -1.551000000
C    -2.618000000     3.811000000     0.175000000
O    -1.779000000     4.527000000     0.976000000
C    -0.984000000     3.700000000     1.890000000
H    -0.935000000     2.644000000     1.587000000
C     0.478000000     4.066000000     2.015000000
C     1.203000000     3.985000000     3.196000000
H     0.783000000     3.550000000     4.099000000
C     1.085000000     4.778000000     0.946000000
H     0.595000000     4.936000000    -0.012000000
C     2.388000000     5.219000000     1.005000000
O     3.006000000     5.887000000    -0.006000000
C     3.105000000     5.137000000     2.210000000
H     4.134000000     5.483000000     2.140000000
C     2.564000000     4.483000000     3.321000000
O     3.288000000     4.443000000     4.542000000
C     3.137000000     3.478000000     5.569000000
C     3.674000000     2.210000000     5.550000000
H     4.044000000     1.804000000     4.612000000
C     2.615000000     3.895000000     6.822000000
H     2.235000000     4.911000000     6.887000000
C     2.557000000     3.088000000     7.967000000
H     2.157000000     3.373000000     8.936000000
C     2.951000000     1.800000000     7.815000000
H     2.870000000     1.093000000     8.637000000
C     3.561000000     1.405000000     6.644000000
O     3.836000000     0.079000000     6.531000000
C     3.166000000    -0.762000000     5.634000000
C     3.887000000    -1.854000000     5.057000000
H     4.959000000    -1.893000000     5.235000000
C     3.311000000    -2.785000000     4.259000000
O     4.021000000    -3.832000000     3.793000000
C     3.585000000    -4.706000000     2.815000000
C     3.629000000    -4.362000000     1.477000000
H     4.136000000    -3.415000000     1.311000000
C     2.980000000    -5.882000000     3.177000000
H     3.052000000    -6.114000000     4.236000000
C     2.444000000    -6.743000000     2.196000000
H     2.041000000    -7.707000000     2.494000000
C     2.626000000    -6.486000000     0.825000000
H     2.397000000    -7.262000000     0.099000000
C     3.265000000    -5.269000000     0.464000000
O     3.514000000    -4.956000000    -0.907000000
C     2.532000000    -4.762000000    -1.834000000
C     2.913000000    -4.553000000    -3.122000000
H     3.970000000    -4.571000000    -3.375000000
C     1.912000000    -4.226000000    -4.091000000
O     2.279000000    -4.087000000    -5.430000000
C     1.648000000    -3.289000000    -6.378000000
C     1.392000000    -1.880000000    -6.160000000
H     1.779000000    -1.427000000    -5.251000000
C     1.246000000    -3.807000000    -7.606000000
H     1.266000000    -4.869000000    -7.834000000
C     0.772000000    -2.985000000    -8.622000000
H     0.391000000    -3.247000000    -9.606000000
C     0.622000000    -1.617000000    -8.427000000
H     0.262000000    -1.023000000    -9.263000000
C     0.956000000    -1.058000000    -7.226000000
O     1.122000000     0.273000000    -7.215000000
C     0.935000000     1.040000000    -6.145000000
C     1.894000000     1.975000000    -5.709000000
H     2.845000000     2.102000000    -6.220000000
C     1.726000000     2.692000000    -4.564000000
O     2.710000000     3.617000000    -4.256000000
C     2.386000000     4.675000000    -3.434000000
C     1.780000000     5.743000000    -4.072000000
H     1.453000000     5.547000000    -5.090000000
C     1.439000000     6.842000000    -3.311000000
H     0.994000000     7.655000000    -3.878000000
C     1.968000000     6.972000000    -1.966000000
H     1.744000000     7.842000000    -1.353000000
C     2.608000000     5.843000000    -1.359000000
C     2.854000000     4.755000000    -2.097000000
H     3.352000000     3.879000000    -1.690000000
C     2.473000000     0.281000000     1.278000000
H     3.009000000     0.966000000     1.930000000
C     1.093000000     0.347000000     1.091000000
H     0.577000000     1.151000000     1.610000000
C     0.391000000    -0.479000000     0.179000000
H    -0.680000000    -0.394000000    -0.113000000
C     1.210000000    -1.403000000    -0.595000000
H     0.727000000    -1.956000000    -1.397000000
C     2.603000000    -1.580000000    -0.346000000
H     3.179000000    -2.329000000    -0.882000000
C     3.212000000    -0.700000000     0.577000000
C     4.687000000    -0.753000000     0.851000000
O     5.430000000    -1.468000000     0.216000000
O     5.195000000     0.068000000     1.625000000
O     7.236000000    -3.768000000    -3.920000000
H     6.936000000    -3.715000000    -4.828000000
H     6.609000000    -3.238000000    -3.429000000
O     8.800000000     2.213000000     4.773000000
H     8.370000000     1.494000000     4.310000000
H     9.736000000     2.048000000     4.655000000
O     7.057000000    -6.314000000     1.192000000
H     6.764000000    -5.787000000     0.449000000
H     7.922000000    -6.633000000     0.933000000
O     7.128000000    -3.103000000     3.559000000
H     6.514000000    -3.735000000     3.186000000
H     7.810000000    -3.640000000     3.961000000
O     6.459000000    -5.428000000    -1.513000000
H     7.148000000    -5.237000000    -2.149000000
H     5.924000000    -4.634000000    -1.494000000
O     7.934000000    -0.982000000     6.307000000
H     8.619000000    -1.230000000     5.685000000
H     7.403000000    -0.341000000     5.834000000
O     7.925000000     4.685000000     0.144000000
H     7.050000000     4.437000000    -0.155000000
H     7.790000000     5.011000000     1.034000000
O     7.057000000     1.834000000     1.370000000
H     6.278000000     1.278000000     1.353000000
H     7.754000000     1.261000000     1.692000000
O     8.860000000    -2.045000000    -1.942000000
H     8.513000000    -2.673000000    -1.308000000
H     9.810000000    -2.157000000    -1.895000000
O     6.180000000     3.646000000    -1.770000000
H     6.253000000     2.714000000    -1.563000000
H     6.719000000     3.761000000    -2.552000000
O     7.765000000    -0.037000000    -3.512000000
H     7.950000000    -0.965000000    -3.368000000
H     7.375000000     0.260000000    -2.690000000
O     7.733000000     4.190000000     2.802000000
H     7.065000000     3.576000000     2.496000000
H     8.153000000     3.740000000     3.536000000
O     5.504000000    -2.668000000    -2.185000000
H     4.883000000    -2.094000000    -2.633000000
H     5.580000000    -2.299000000    -1.305000000
O    10.053000000     2.632000000     0.182000000
H     9.274000000     3.064000000     0.533000000
H    10.067000000     2.878000000    -0.743000000
O    10.207000000    -3.649000000     0.961000000
H     9.395000000    -3.150000000     0.871000000
H    10.895000000    -3.035000000     0.705000000
O     7.836000000    -2.665000000     0.842000000
H     7.062000000    -2.190000000     0.541000000
H     7.810000000    -2.589000000     1.795000000
O     7.209000000    -0.265000000     3.513000000
H     6.437000000    -0.073000000     2.981000000
H     7.239000000    -1.221000000     3.556000000
O     3.954000000    -0.961000000    -3.488000000
H     4.014000000    -0.120000000    -3.036000000
H     3.828000000    -0.730000000    -4.408000000
O     6.345000000     0.865000000    -1.190000000
H     6.673000000     1.101000000    -0.322000000
H     6.067000000    -0.047000000    -1.101000000
