215
-1473.64928
C    -4.959000000    -1.181000000    -1.930000000
H    -4.872000000    -0.188000000    -2.364000000
C    -4.724000000    -1.223000000    -0.560000000
C    -4.783000000    -2.466000000     0.089000000
H    -4.611000000    -2.591000000     1.155000000
C    -4.287000000     0.033000000     0.142000000
O    -4.782000000     1.218000000    -0.439000000
H    -3.218000000     0.217000000     0.328000000
O    -4.765000000     0.042000000     1.464000000
C    -3.926000000     0.415000000     2.550000000
C    -3.146000000    -0.635000000     3.207000000
H    -3.477000000    -1.656000000     3.035000000
C    -2.087000000    -0.321000000     4.033000000
O    -1.215000000    -1.272000000     4.539000000
C    -1.773000000     1.013000000     4.238000000
C    -0.696000000     1.539000000     5.156000000
H    -0.985000000     2.435000000     5.709000000
C     0.672000000     1.715000000     4.464000000
C     0.951000000     2.843000000     3.764000000
H     0.180000000     3.607000000     3.807000000
H    -0.606000000     0.815000000     5.969000000
C    -2.561000000     1.993000000     3.573000000
H    -2.395000000     3.044000000     3.797000000
C    -3.583000000     1.731000000     2.675000000
C    -4.335000000     2.802000000     2.003000000
H    -4.243000000     3.682000000     2.643000000
H    -5.394000000     2.545000000     1.933000000
C    -3.758000000     3.137000000     0.596000000
C    -2.869000000     4.189000000     0.433000000
H    -2.740000000     4.774000000     1.340000000
C    -3.884000000     2.288000000    -0.529000000
C    -3.223000000     2.520000000    -1.705000000
H    -3.381000000     1.876000000    -2.566000000
C    -2.350000000     3.536000000    -1.787000000
O    -1.655000000     3.646000000    -2.896000000
C    -0.367000000     2.982000000    -2.953000000
C    -0.156000000     2.185000000    -4.233000000
C     1.109000000     1.857000000    -4.698000000
H     1.909000000     2.289000000    -4.102000000
C    -1.284000000     1.611000000    -4.909000000
H    -2.312000000     1.888000000    -4.691000000
O     0.759000000     3.949000000    -2.807000000
H    -0.322000000     2.275000000    -2.111000000
C    -2.137000000     4.409000000    -0.758000000
C    -1.015000000     5.412000000    -0.844000000
H    -1.194000000     6.228000000    -0.141000000
H    -0.973000000     5.781000000    -1.871000000
C     0.304000000     4.712000000    -0.515000000
C     0.867000000     4.818000000     0.741000000
H     0.321000000     5.306000000     1.544000000
C     1.157000000     4.119000000    -1.477000000
C     2.397000000     3.560000000    -1.201000000
H     3.009000000     3.109000000    -1.978000000
C     2.894000000     3.684000000     0.115000000
O     4.151000000     3.175000000     0.377000000
C     4.105000000     1.798000000     0.913000000
C     5.023000000     0.753000000     0.268000000
C     5.180000000     0.771000000    -1.100000000
H     4.842000000     1.637000000    -1.664000000
C     5.409000000    -0.428000000     0.902000000
H     5.248000000    -0.493000000     1.975000000
O     4.200000000     1.862000000     2.368000000
H     3.093000000     1.398000000     0.755000000
C     2.115000000     4.311000000     1.065000000
C     2.564000000     4.310000000     2.492000000
H     2.257000000     5.191000000     3.059000000
H     3.654000000     4.342000000     2.551000000
C     2.175000000     3.023000000     3.149000000
C     3.011000000     1.874000000     3.059000000
C     2.669000000     0.675000000     3.643000000
H     3.241000000    -0.222000000     3.416000000
C     1.495000000     0.595000000     4.313000000
O     1.082000000    -0.669000000     4.606000000
C     0.063000000    -1.414000000     3.886000000
H    -0.063000000    -0.876000000     2.936000000
C     0.415000000    -2.816000000     3.683000000
C    -0.593000000    -3.734000000     3.317000000
H    -1.642000000    -3.454000000     3.267000000
C     1.745000000    -3.222000000     3.653000000
H     2.453000000    -2.515000000     4.077000000
C     2.034000000    -4.563000000     3.382000000
O     3.314000000    -5.148000000     3.479000000
C     1.005000000    -5.495000000     3.115000000
H     1.292000000    -6.508000000     2.845000000
C    -0.286000000    -5.030000000     3.002000000
O    -1.207000000    -6.000000000     2.639000000
C    -2.595000000    -5.776000000     2.575000000
C    -3.165000000    -5.334000000     1.380000000
H    -2.578000000    -5.169000000     0.481000000
C    -3.368000000    -6.231000000     3.640000000
H    -2.854000000    -6.684000000     4.483000000
C    -4.704000000    -6.066000000     3.535000000
H    -5.367000000    -6.417000000     4.322000000
C    -5.288000000    -5.572000000     2.381000000
H    -6.368000000    -5.550000000     2.260000000
C    -4.543000000    -5.203000000     1.249000000
O    -5.193000000    -4.831000000     0.030000000
C    -5.055000000    -3.606000000    -0.630000000
C    -5.242000000    -3.535000000    -2.007000000
H    -5.424000000    -4.484000000    -2.505000000
C    -5.164000000    -2.355000000    -2.672000000
O    -5.516000000    -2.304000000    -3.952000000
C    -5.110000000    -1.211000000    -4.783000000
C    -3.814000000    -1.209000000    -5.402000000
H    -3.158000000    -2.066000000    -5.274000000
C    -6.008000000    -0.207000000    -5.029000000
H    -6.985000000    -0.231000000    -4.554000000
C    -5.663000000     0.820000000    -5.882000000
H    -6.390000000     1.584000000    -6.145000000
C    -4.323000000     0.978000000    -6.295000000
H    -3.989000000     1.900000000    -6.766000000
C    -3.421000000    -0.050000000    -6.111000000
O    -2.136000000     0.057000000    -6.604000000
C    -1.057000000     0.535000000    -5.802000000
C     0.250000000     0.364000000    -6.316000000
H     0.392000000    -0.346000000    -7.127000000
C     1.304000000     0.979000000    -5.749000000
O     2.573000000     0.523000000    -6.102000000
C     3.723000000     1.087000000    -5.508000000
C     4.490000000     0.271000000    -4.669000000
H     4.157000000    -0.754000000    -4.525000000
C     4.204000000     2.350000000    -5.853000000
H     3.730000000     2.854000000    -6.691000000
C     5.367000000     2.898000000    -5.229000000
H     5.778000000     3.839000000    -5.587000000
C     6.072000000     2.115000000    -4.368000000
H     6.920000000     2.520000000    -3.822000000
C     5.642000000     0.786000000    -4.061000000
O     6.290000000    -0.081000000    -3.114000000
C     5.887000000    -0.238000000    -1.820000000
C     6.408000000    -1.287000000    -1.092000000
H     6.979000000    -2.017000000    -1.660000000
C     6.058000000    -1.478000000     0.248000000
O     6.561000000    -2.594000000     0.849000000
C     6.006000000    -2.889000000     2.147000000
C     6.584000000    -2.399000000     3.355000000
H     7.429000000    -1.715000000     3.349000000
C     6.066000000    -2.925000000     4.561000000
H     6.497000000    -2.699000000     5.533000000
C     5.021000000    -3.832000000     4.575000000
H     4.607000000    -4.083000000     5.548000000
C     4.407000000    -4.285000000     3.424000000
C     4.956000000    -3.872000000     2.165000000
H     4.538000000    -4.271000000     1.245000000
C     0.142000000    -2.725000000    -0.255000000
H    -0.425000000    -3.615000000     0.005000000
C    -0.097000000    -1.502000000     0.306000000
H    -0.914000000    -1.458000000     1.021000000
C     0.503000000    -0.328000000    -0.040000000
H     0.051000000     0.592000000     0.448000000
C     1.493000000    -0.293000000    -0.955000000
H     2.040000000     0.594000000    -1.263000000
C     1.951000000    -1.550000000    -1.457000000
H     2.744000000    -1.617000000    -2.198000000
C     1.241000000    -2.714000000    -1.163000000
C     1.654000000    -3.973000000    -1.912000000
O     2.656000000    -4.021000000    -2.619000000
O     0.970000000    -4.943000000    -1.880000000
O     3.269000000    -6.099000000    -4.352000000
H     2.972000000    -5.435000000    -3.730000000
H     2.581000000    -6.128000000    -5.018000000
O     4.431000000    -7.041000000    -0.178000000
H     4.708000000    -6.175000000    -0.478000000
H     5.218000000    -7.425000000     0.207000000
O     1.696000000    -7.300000000    -1.118000000
H     1.261000000    -6.504000000    -1.424000000
H     2.540000000    -6.997000000    -0.782000000
O    -2.140000000    -7.527000000    -2.212000000
H    -1.287000000    -7.916000000    -2.404000000
H    -2.061000000    -6.619000000    -2.507000000
O     1.578000000    -5.444000000    -6.427000000
H     0.714000000    -5.777000000    -6.185000000
H     2.060000000    -6.218000000    -6.718000000
O     6.414000000    -3.782000000    -3.605000000
H     6.205000000    -3.427000000    -4.469000000
H     7.327000000    -3.536000000    -3.459000000
O    -3.185000000    -5.154000000    -4.990000000
H    -2.473000000    -5.734000000    -5.263000000
H    -2.851000000    -4.719000000    -4.205000000
O     7.355000000    -6.030000000    -0.125000000
H     6.572000000    -5.697000000    -0.563000000
H     7.090000000    -6.142000000     0.788000000
O     5.093000000    -4.718000000    -1.414000000
H     5.559000000    -4.383000000    -2.180000000
H     4.244000000    -4.275000000    -1.438000000
O     0.883000000    -8.746000000     0.924000000
H    -0.058000000    -8.584000000     0.861000000
H     1.254000000    -8.303000000     0.161000000
O     5.470000000    -6.533000000    -6.209000000
H     6.055000000    -6.753000000    -5.485000000
H     4.946000000    -5.802000000    -5.880000000
O     5.859000000    -2.634000000    -5.906000000
H     4.908000000    -2.698000000    -5.993000000
H     6.105000000    -1.912000000    -6.485000000
O     4.520000000    -8.205000000    -3.169000000
H     4.149000000    -7.564000000    -3.775000000
H     4.560000000    -7.746000000    -2.330000000
O    -1.652000000    -2.091000000    -2.848000000
H    -1.098000000    -2.209000000    -3.620000000
H    -1.091000000    -1.639000000    -2.218000000
O    -0.683000000    -6.407000000    -5.361000000
H    -0.506000000    -6.778000000    -4.497000000
H    -1.016000000    -7.143000000    -5.874000000
O     0.182000000    -8.397000000    -3.011000000
H     0.731000000    -8.052000000    -2.307000000
H     0.792000000    -8.857000000    -3.587000000
O     2.883000000    -3.077000000    -5.015000000
H     3.052000000    -3.198000000    -4.080000000
H     2.654000000    -3.951000000    -5.331000000
O    -1.570000000    -4.904000000    -2.581000000
H    -1.712000000    -3.977000000    -2.774000000
H    -0.628000000    -4.977000000    -2.430000000
O     0.011000000    -2.709000000    -4.882000000
H    -0.174000000    -2.901000000    -5.801000000
H     0.956000000    -2.561000000    -4.854000000
