215
-1451.68933
C     2.069000000    -3.681000000     2.809000000
H     1.523000000    -4.570000000     2.503000000
C     1.310000000    -2.660000000     3.371000000
C     1.992000000    -1.469000000     3.758000000
H     1.386000000    -0.616000000     4.054000000
C    -0.204000000    -2.661000000     3.289000000
O    -0.792000000    -3.916000000     3.205000000
H    -0.505000000    -2.081000000     2.404000000
O    -0.817000000    -1.942000000     4.361000000
C    -1.773000000    -0.958000000     4.088000000
C    -1.369000000     0.365000000     4.228000000
H    -0.472000000     0.458000000     4.834000000
C    -2.205000000     1.466000000     3.828000000
O    -1.707000000     2.783000000     3.885000000
C    -3.494000000     1.171000000     3.289000000
C    -4.497000000     2.252000000     2.678000000
H    -5.543000000     2.001000000     2.870000000
C    -4.235000000     2.638000000     1.213000000
C    -4.783000000     1.840000000     0.175000000
H    -5.568000000     1.105000000     0.332000000
H    -4.538000000     3.187000000     3.240000000
C    -3.925000000    -0.163000000     3.267000000
H    -4.937000000    -0.376000000     2.935000000
C    -3.046000000    -1.232000000     3.587000000
C    -3.378000000    -2.686000000     3.443000000
H    -4.461000000    -2.742000000     3.574000000
H    -3.004000000    -3.216000000     4.322000000
C    -2.907000000    -3.407000000     2.170000000
C    -3.731000000    -3.460000000     1.044000000
H    -4.652000000    -2.883000000     1.054000000
C    -1.672000000    -3.971000000     2.139000000
C    -1.152000000    -4.436000000     0.920000000
H    -0.157000000    -4.844000000     0.759000000
C    -1.913000000    -4.291000000    -0.228000000
O    -1.253000000    -4.637000000    -1.408000000
C    -0.692000000    -3.549000000    -2.148000000
C     0.717000000    -3.952000000    -2.677000000
C     1.256000000    -3.300000000    -3.741000000
H     0.760000000    -2.465000000    -4.230000000
C     1.482000000    -5.040000000    -2.142000000
H     1.215000000    -5.576000000    -1.235000000
O    -1.591000000    -3.319000000    -3.221000000
H    -0.684000000    -2.628000000    -1.547000000
C    -3.225000000    -3.864000000    -0.218000000
C    -4.019000000    -3.698000000    -1.554000000
H    -5.085000000    -3.755000000    -1.328000000
H    -3.898000000    -4.531000000    -2.250000000
C    -3.623000000    -2.382000000    -2.192000000
C    -4.399000000    -1.245000000    -1.827000000
H    -5.191000000    -1.329000000    -1.088000000
C    -2.533000000    -2.302000000    -3.110000000
C    -2.255000000    -1.074000000    -3.621000000
H    -1.411000000    -0.922000000    -4.290000000
C    -3.054000000     0.041000000    -3.339000000
O    -2.598000000     1.199000000    -3.959000000
C    -1.821000000     2.056000000    -3.108000000
C    -0.580000000     2.702000000    -3.598000000
C     0.383000000     1.788000000    -4.004000000
H     0.229000000     0.712000000    -3.977000000
C    -0.218000000     4.038000000    -3.466000000
H    -0.890000000     4.740000000    -2.980000000
O    -2.713000000     3.059000000    -2.665000000
H    -1.530000000     1.452000000    -2.236000000
C    -4.158000000     0.009000000    -2.501000000
C    -5.022000000     1.252000000    -2.204000000
H    -6.061000000     1.002000000    -1.978000000
H    -5.072000000     1.915000000    -3.070000000
C    -4.367000000     2.054000000    -1.141000000
C    -3.234000000     2.845000000    -1.388000000
C    -2.661000000     3.562000000    -0.278000000
H    -1.829000000     4.216000000    -0.526000000
C    -3.152000000     3.485000000     0.987000000
O    -2.421000000     4.101000000     1.957000000
C    -1.269000000     3.394000000     2.534000000
H    -1.005000000     2.559000000     1.869000000
C    -0.020000000     4.165000000     2.614000000
C     0.858000000     4.013000000     3.702000000
H     0.663000000     3.302000000     4.501000000
C     0.289000000     5.174000000     1.698000000
H    -0.367000000     5.474000000     0.884000000
C     1.503000000     5.845000000     1.820000000
O     1.730000000     6.951000000     1.000000000
C     2.483000000     5.533000000     2.755000000
H     3.400000000     6.116000000     2.778000000
C     2.095000000     4.664000000     3.753000000
O     2.934000000     4.436000000     4.791000000
C     3.130000000     3.114000000     5.342000000
C     3.651000000     2.132000000     4.450000000
H     4.037000000     2.529000000     3.514000000
C     2.539000000     2.723000000     6.566000000
H     2.213000000     3.442000000     7.313000000
C     2.504000000     1.393000000     6.930000000
H     2.170000000     1.130000000     7.930000000
C     2.997000000     0.420000000     6.085000000
H     2.977000000    -0.638000000     6.334000000
C     3.614000000     0.803000000     4.854000000
O     4.066000000    -0.162000000     3.891000000
C     3.421000000    -1.334000000     3.718000000
C     4.167000000    -2.442000000     3.297000000
H     5.234000000    -2.363000000     3.104000000
C     3.462000000    -3.566000000     2.803000000
O     4.273000000    -4.604000000     2.373000000
C     3.875000000    -5.678000000     1.569000000
C     3.723000000    -5.447000000     0.271000000
H     3.863000000    -4.406000000    -0.007000000
C     3.646000000    -6.910000000     2.175000000
H     3.609000000    -7.143000000     3.236000000
C     3.429000000    -7.994000000     1.323000000
H     3.388000000    -8.950000000     1.839000000
C     3.461000000    -7.806000000    -0.076000000
H     3.375000000    -8.659000000    -0.744000000
C     3.447000000    -6.545000000    -0.597000000
O     3.454000000    -6.291000000    -2.001000000
C     2.678000000    -5.377000000    -2.655000000
C     3.225000000    -4.820000000    -3.822000000
H     4.208000000    -5.044000000    -4.227000000
C     2.474000000    -3.748000000    -4.328000000
O     3.009000000    -3.244000000    -5.483000000
C     2.591000000    -1.982000000    -5.925000000
C     2.919000000    -0.879000000    -5.153000000
H     3.512000000    -1.044000000    -4.258000000
C     1.741000000    -1.956000000    -6.996000000
H     1.592000000    -2.896000000    -7.521000000
C     1.207000000    -0.733000000    -7.441000000
H     0.489000000    -0.559000000    -8.239000000
C     1.486000000     0.367000000    -6.697000000
H     1.139000000     1.315000000    -7.099000000
C     2.308000000     0.311000000    -5.539000000
O     2.629000000     1.444000000    -4.891000000
C     1.678000000     2.239000000    -4.346000000
C     2.021000000     3.629000000    -4.280000000
H     3.018000000     3.978000000    -4.534000000
C     1.015000000     4.454000000    -3.822000000
O     1.265000000     5.826000000    -3.739000000
C     1.018000000     6.638000000    -2.624000000
C     0.201000000     7.763000000    -2.752000000
H    -0.274000000     7.968000000    -3.708000000
C    -0.178000000     8.624000000    -1.708000000
H    -0.788000000     9.521000000    -1.777000000
C     0.300000000     8.252000000    -0.440000000
H     0.088000000     8.800000000     0.475000000
C     1.171000000     7.199000000    -0.244000000
C     1.512000000     6.392000000    -1.320000000
H     2.109000000     5.497000000    -1.162000000
C     2.205000000     0.429000000     0.815000000
H     2.889000000     0.685000000     1.620000000
C     0.902000000     0.212000000     1.079000000
H     0.446000000     0.483000000     2.028000000
C     0.004000000    -0.190000000     0.029000000
H    -1.070000000    -0.358000000     0.196000000
C     0.505000000    -0.388000000    -1.242000000
H    -0.135000000    -0.677000000    -2.072000000
C     1.803000000    -0.200000000    -1.526000000
H     2.060000000    -0.272000000    -2.579000000
C     2.683000000     0.274000000    -0.530000000
C     4.127000000     0.634000000    -0.848000000
O     4.701000000     0.237000000    -1.825000000
O     4.709000000     1.455000000    -0.144000000
O     6.879000000    -4.727000000     1.414000000
H     6.760000000    -3.863000000     1.807000000
H     7.094000000    -4.547000000     0.499000000
O     9.465000000    -2.413000000    -0.245000000
H     8.952000000    -3.049000000    -0.744000000
H     9.565000000    -1.668000000    -0.837000000
O     9.517000000     0.998000000    -4.125000000
H     9.306000000     1.171000000    -5.042000000
H     8.884000000     1.519000000    -3.630000000
O     4.255000000     4.035000000    -0.405000000
H     4.889000000     4.264000000     0.274000000
H     4.311000000     3.082000000    -0.473000000
O     5.157000000     6.145000000    -2.391000000
H     4.661000000     5.529000000    -1.852000000
H     6.058000000     5.822000000    -2.357000000
O     8.287000000     2.830000000    -2.485000000
H     8.193000000     3.582000000    -1.900000000
H     7.396000000     2.497000000    -2.592000000
O     9.023000000    -1.674000000    -2.939000000
H     9.087000000    -0.722000000    -3.016000000
H     8.083000000    -1.851000000    -2.921000000
O     5.709000000    -2.203000000    -2.378000000
H     5.216000000    -2.415000000    -3.171000000
H     5.383000000    -1.341000000    -2.117000000
O     0.567000000     3.035000000    -0.440000000
H     1.362000000     3.568000000    -0.460000000
H     0.809000000     2.227000000    -0.893000000
O     7.691000000     0.561000000    -0.304000000
H     7.035000000     0.459000000    -0.994000000
H     7.183000000     0.767000000     0.481000000
O     7.179000000    -3.938000000    -1.193000000
H     7.085000000    -4.591000000    -1.887000000
H     6.566000000    -3.243000000    -1.433000000
O     7.025000000     2.834000000     3.550000000
H     7.212000000     1.987000000     3.956000000
H     6.592000000     2.613000000     2.725000000
O    10.330000000     1.226000000    -0.414000000
H     9.398000000     1.006000000    -0.436000000
H    10.376000000     2.106000000    -0.787000000
O     7.863000000     5.349000000    -0.958000000
H     8.409000000     6.093000000    -1.212000000
H     7.552000000     5.570000000    -0.080000000
O     6.552000000    -0.860000000    -6.211000000
H     6.367000000    -1.707000000    -5.808000000
H     6.235000000    -0.948000000    -7.110000000
O     7.584000000    -1.969000000     1.759000000
H     8.029000000    -2.034000000     0.914000000
H     7.390000000    -1.037000000     1.857000000
O     6.012000000     0.577000000     1.923000000
H     5.528000000     0.761000000     1.118000000
H     5.365000000     0.177000000     2.505000000
O     6.531000000     4.239000000    -5.091000000
H     6.853000000     3.717000000    -5.826000000
H     6.067000000     3.611000000    -4.537000000
O     5.931000000     1.727000000    -4.139000000
H     5.351000000     1.280000000    -3.523000000
H     6.021000000     1.116000000    -4.871000000
