215
-1444.03951
C     2.422000000    -3.642000000     2.997000000
H     2.023000000    -4.621000000     2.745000000
C     1.611000000    -2.637000000     3.444000000
C     2.202000000    -1.418000000     3.815000000
H     1.626000000    -0.513000000     3.990000000
C     0.098000000    -2.688000000     3.186000000
O    -0.373000000    -4.030000000     2.813000000
H     0.013000000    -2.035000000     2.305000000
O    -0.569000000    -2.215000000     4.263000000
C    -1.589000000    -1.318000000     4.137000000
C    -1.429000000     0.066000000     4.354000000
H    -0.433000000     0.403000000     4.627000000
C    -2.398000000     0.957000000     3.882000000
O    -2.124000000     2.292000000     3.925000000
C    -3.621000000     0.496000000     3.281000000
C    -4.655000000     1.468000000     2.799000000
H    -5.671000000     1.126000000     3.006000000
C    -4.278000000     1.815000000     1.336000000
C    -4.931000000     1.234000000     0.230000000
H    -5.719000000     0.501000000     0.379000000
H    -4.612000000     2.291000000     3.516000000
C    -3.884000000    -0.900000000     3.291000000
H    -4.864000000    -1.211000000     2.936000000
C    -2.868000000    -1.806000000     3.627000000
C    -3.124000000    -3.294000000     3.291000000
H    -4.201000000    -3.464000000     3.353000000
H    -2.708000000    -3.951000000     4.058000000
C    -2.602000000    -3.753000000     1.945000000
C    -3.384000000    -3.624000000     0.856000000
H    -4.393000000    -3.231000000     0.955000000
C    -1.236000000    -4.106000000     1.815000000
C    -0.692000000    -4.476000000     0.614000000
H     0.350000000    -4.757000000     0.484000000
C    -1.511000000    -4.400000000    -0.518000000
O    -0.927000000    -4.693000000    -1.736000000
C    -0.531000000    -3.562000000    -2.415000000
C     0.953000000    -3.722000000    -2.782000000
C     1.424000000    -2.798000000    -3.708000000
H     0.715000000    -2.119000000    -4.176000000
C     1.884000000    -4.592000000    -2.233000000
H     1.600000000    -5.350000000    -1.507000000
O    -1.379000000    -3.353000000    -3.507000000
H    -0.620000000    -2.659000000    -1.794000000
C    -2.926000000    -3.998000000    -0.429000000
C    -3.832000000    -3.869000000    -1.648000000
H    -4.886000000    -3.976000000    -1.383000000
H    -3.727000000    -4.722000000    -2.322000000
C    -3.473000000    -2.628000000    -2.363000000
C    -4.384000000    -1.599000000    -2.159000000
H    -5.136000000    -1.796000000    -1.399000000
C    -2.425000000    -2.435000000    -3.352000000
C    -2.287000000    -1.159000000    -3.909000000
H    -1.439000000    -0.989000000    -4.567000000
C    -3.138000000    -0.078000000    -3.575000000
O    -2.906000000     1.194000000    -3.978000000
C    -2.239000000     2.169000000    -3.098000000
C    -1.152000000     2.992000000    -3.777000000
C    -0.292000000     2.333000000    -4.644000000
H    -0.395000000     1.266000000    -4.826000000
C    -0.922000000     4.318000000    -3.423000000
H    -1.615000000     4.888000000    -2.810000000
O    -3.221000000     2.992000000    -2.510000000
H    -1.835000000     1.490000000    -2.332000000
C    -4.226000000    -0.315000000    -2.665000000
C    -5.132000000     0.789000000    -2.194000000
H    -6.094000000     0.332000000    -1.951000000
H    -5.316000000     1.498000000    -3.003000000
C    -4.592000000     1.586000000    -1.039000000
C    -3.574000000     2.554000000    -1.294000000
C    -2.959000000     3.228000000    -0.192000000
H    -2.176000000     3.970000000    -0.324000000
C    -3.316000000     2.841000000     1.084000000
O    -2.721000000     3.553000000     2.109000000
C    -1.611000000     2.864000000     2.772000000
H    -1.296000000     2.125000000     2.020000000
C    -0.405000000     3.789000000     2.995000000
C     0.510000000     3.616000000     4.085000000
H     0.345000000     2.839000000     4.827000000
C    -0.038000000     4.730000000     2.003000000
H    -0.689000000     4.809000000     1.135000000
C     1.246000000     5.271000000     1.992000000
O     1.635000000     6.057000000     0.940000000
C     2.167000000     5.077000000     3.067000000
H     3.075000000     5.669000000     2.979000000
C     1.739000000     4.324000000     4.177000000
O     2.583000000     4.210000000     5.318000000
C     3.142000000     2.976000000     5.593000000
C     3.487000000     2.105000000     4.646000000
H     3.499000000     2.336000000     3.584000000
C     3.190000000     2.654000000     6.955000000
H     2.941000000     3.483000000     7.614000000
C     3.427000000     1.360000000     7.427000000
H     3.428000000     1.251000000     8.508000000
C     3.751000000     0.451000000     6.455000000
H     4.013000000    -0.563000000     6.745000000
C     3.779000000     0.828000000     5.034000000
O     4.261000000    -0.133000000     4.100000000
C     3.606000000    -1.315000000     3.826000000
C     4.402000000    -2.367000000     3.507000000
H     5.477000000    -2.213000000     3.464000000
C     3.791000000    -3.528000000     3.044000000
O     4.657000000    -4.504000000     2.604000000
C     4.353000000    -5.380000000     1.616000000
C     4.257000000    -4.999000000     0.259000000
H     4.187000000    -3.943000000     0.011000000
C     4.148000000    -6.680000000     1.935000000
H     4.145000000    -6.929000000     2.993000000
C     3.996000000    -7.613000000     0.954000000
H     3.761000000    -8.637000000     1.232000000
C     3.918000000    -7.255000000    -0.401000000
H     3.688000000    -8.002000000    -1.156000000
C     4.111000000    -5.944000000    -0.761000000
O     4.049000000    -5.571000000    -2.085000000
C     3.187000000    -4.583000000    -2.558000000
C     3.660000000    -3.573000000    -3.405000000
H     4.691000000    -3.550000000    -3.749000000
C     2.801000000    -2.628000000    -3.941000000
O     3.298000000    -1.723000000    -4.838000000
C     2.475000000    -0.972000000    -5.680000000
C     2.407000000     0.409000000    -5.431000000
H     3.019000000     0.913000000    -4.688000000
C     1.910000000    -1.450000000    -6.805000000
H     2.122000000    -2.486000000    -7.054000000
C     1.203000000    -0.648000000    -7.670000000
H     0.746000000    -1.026000000    -8.581000000
C     1.107000000     0.730000000    -7.457000000
H     0.547000000     1.356000000    -8.147000000
C     1.715000000     1.205000000    -6.347000000
O     1.703000000     2.565000000    -6.107000000
C     0.754000000     3.055000000    -5.216000000
C     0.928000000     4.412000000    -4.910000000
H     1.741000000     4.938000000    -5.404000000
C     0.109000000     5.038000000    -3.999000000
O     0.343000000     6.366000000    -3.679000000
C     0.264000000     6.850000000    -2.361000000
C    -0.405000000     8.062000000    -2.119000000
H    -0.859000000     8.695000000    -2.877000000
C    -0.396000000     8.603000000    -0.797000000
H    -0.879000000     9.567000000    -0.661000000
C     0.289000000     7.908000000     0.188000000
H     0.217000000     8.330000000     1.187000000
C     0.876000000     6.712000000    -0.053000000
C     0.980000000     6.240000000    -1.334000000
H     1.526000000     5.312000000    -1.482000000
C     2.235000000     0.484000000     0.747000000
H     2.759000000     0.796000000     1.648000000
C     0.847000000     0.259000000     0.910000000
H     0.247000000     0.492000000     1.785000000
C     0.098000000    -0.133000000    -0.168000000
H    -0.966000000    -0.394000000    -0.070000000
C     0.757000000    -0.348000000    -1.407000000
H     0.182000000    -0.692000000    -2.263000000
C     2.153000000    -0.150000000    -1.509000000
H     2.626000000    -0.217000000    -2.485000000
C     2.906000000     0.145000000    -0.398000000
C     4.377000000     0.374000000    -0.587000000
O     4.767000000     0.551000000    -1.746000000
O     5.125000000     0.444000000     0.322000000
O     4.238000000     3.706000000    -0.899000000
H     3.381000000     3.283000000    -0.842000000
H     4.856000000     3.033000000    -0.613000000
O     4.063000000     6.617000000    -1.720000000
H     4.005000000     5.662000000    -1.734000000
H     4.419000000     6.822000000    -0.855000000
O     7.348000000     4.365000000    -3.213000000
H     7.505000000     4.629000000    -2.306000000
H     6.649000000     3.714000000    -3.155000000
O     9.039000000    -0.317000000    -5.186000000
H     8.455000000    -0.544000000    -4.463000000
H     9.595000000     0.379000000    -4.836000000
O     6.287000000    -1.901000000    -2.406000000
H     6.886000000    -1.232000000    -2.072000000
H     5.415000000    -1.567000000    -2.197000000
O     1.498000000     2.799000000    -1.357000000
H     1.331000000     1.933000000    -0.985000000
H     1.717000000     2.629000000    -2.273000000
O     7.379000000     0.780000000    -1.913000000
H     7.751000000     0.560000000    -1.058000000
H     6.432000000     0.724000000    -1.783000000
O     6.404000000     4.089000000     3.561000000
H     7.257000000     4.036000000     3.991000000
H     6.472000000     3.487000000     2.819000000
O     7.289000000    -4.157000000    -1.191000000
H     6.923000000    -4.957000000    -1.567000000
H     6.837000000    -3.448000000    -1.648000000
O     6.783000000     2.798000000     1.166000000
H     7.622000000     2.337000000     1.190000000
H     6.129000000     2.102000000     1.099000000
O     9.719000000     1.978000000    -1.337000000
H     8.945000000     1.917000000    -1.897000000
H     9.617000000     2.812000000    -0.878000000
O     7.102000000     5.169000000    -0.356000000
H     6.951000000     4.423000000     0.224000000
H     6.434000000     5.807000000    -0.106000000
O     6.148000000    -0.005000000    -6.031000000
H     6.027000000    -0.783000000    -5.487000000
H     6.125000000    -0.335000000    -6.930000000
O    10.048000000    -1.331000000     0.557000000
H    10.663000000    -0.690000000     0.914000000
H     9.206000000    -0.876000000     0.547000000
O     8.028000000    -2.625000000     3.935000000
H     7.464000000    -1.866000000     3.790000000
H     7.696000000    -3.020000000     4.742000000
O     7.434000000    -0.570000000     0.660000000
H     6.494000000    -0.467000000     0.517000000
H     7.525000000    -0.657000000     1.609000000
O     7.031000000    -0.279000000     3.776000000
H     6.144000000     0.058000000     3.904000000
H     7.526000000     0.059000000     4.522000000
O     4.347000000     4.305000000    -4.755000000
H     4.387000000     4.114000000    -5.692000000
H     4.797000000     3.568000000    -4.340000000
O     5.111000000     1.842000000    -4.030000000
H     4.755000000     1.415000000    -3.251000000
H     5.543000000     1.138000000    -4.513000000
