215
-1464.44017
C     2.985000000    -3.221000000     1.870000000
H     2.581000000    -3.626000000     0.946000000
C     2.075000000    -3.030000000     2.951000000
C     2.482000000    -2.309000000     4.075000000
H     1.697000000    -1.888000000     4.698000000
C     0.653000000    -3.267000000     2.710000000
O     0.409000000    -4.408000000     1.830000000
H     0.276000000    -2.381000000     2.177000000
O    -0.059000000    -3.297000000     3.889000000
C    -1.163000000    -2.477000000     3.839000000
C    -1.091000000    -1.169000000     4.255000000
H    -0.208000000    -0.762000000     4.741000000
C    -2.154000000    -0.236000000     4.045000000
O    -1.909000000     1.093000000     4.344000000
C    -3.253000000    -0.679000000     3.376000000
C    -4.415000000     0.291000000     3.057000000
H    -5.336000000    -0.292000000     3.119000000
C    -4.261000000     1.095000000     1.783000000
C    -4.995000000     0.780000000     0.641000000
H    -5.768000000     0.016000000     0.666000000
H    -4.447000000     1.019000000     3.871000000
C    -3.382000000    -2.047000000     3.007000000
H    -4.305000000    -2.328000000     2.507000000
C    -2.329000000    -2.863000000     3.173000000
C    -2.421000000    -4.234000000     2.587000000
H    -3.443000000    -4.613000000     2.516000000
H    -1.931000000    -5.041000000     3.135000000
C    -1.935000000    -4.151000000     1.188000000
C    -2.812000000    -3.966000000     0.172000000
H    -3.876000000    -3.851000000     0.364000000
C    -0.594000000    -4.407000000     0.891000000
C    -0.111000000    -4.437000000    -0.418000000
H     0.924000000    -4.709000000    -0.611000000
C    -1.004000000    -4.268000000    -1.427000000
O    -0.447000000    -4.316000000    -2.703000000
C    -0.236000000    -3.008000000    -3.269000000
C     1.068000000    -2.787000000    -4.023000000
C     1.220000000    -1.944000000    -5.085000000
H     0.391000000    -1.351000000    -5.462000000
C     2.209000000    -3.461000000    -3.551000000
H     2.107000000    -4.000000000    -2.613000000
O    -1.476000000    -2.668000000    -4.060000000
H    -0.242000000    -2.294000000    -2.432000000
C    -2.336000000    -4.069000000    -1.178000000
C    -3.324000000    -3.745000000    -2.233000000
H    -4.317000000    -4.030000000    -1.877000000
H    -2.996000000    -4.386000000    -3.053000000
C    -3.341000000    -2.308000000    -2.640000000
C    -4.322000000    -1.422000000    -2.148000000
H    -4.926000000    -1.817000000    -1.335000000
C    -2.463000000    -1.843000000    -3.591000000
C    -2.526000000    -0.494000000    -3.984000000
H    -1.818000000    -0.181000000    -4.747000000
C    -3.445000000     0.391000000    -3.511000000
O    -3.207000000     1.736000000    -3.690000000
C    -2.578000000     2.508000000    -2.625000000
C    -1.424000000     3.452000000    -3.080000000
C    -0.499000000     2.996000000    -3.988000000
H    -0.587000000     2.029000000    -4.477000000
C    -1.219000000     4.663000000    -2.339000000
H    -1.971000000     4.983000000    -1.622000000
O    -3.581000000     3.161000000    -1.779000000
H    -2.108000000     1.843000000    -1.886000000
C    -4.434000000    -0.050000000    -2.563000000
C    -5.382000000     0.887000000    -1.892000000
H    -6.247000000     0.238000000    -1.739000000
H    -5.645000000     1.642000000    -2.636000000
C    -4.778000000     1.385000000    -0.586000000
C    -3.936000000     2.558000000    -0.611000000
C    -3.282000000     2.980000000     0.550000000
H    -2.702000000     3.900000000     0.533000000
C    -3.465000000     2.276000000     1.764000000
O    -2.702000000     2.675000000     2.800000000
C    -1.560000000     1.957000000     3.242000000
H    -1.231000000     1.266000000     2.452000000
C    -0.402000000     2.865000000     3.708000000
C     0.380000000     2.443000000     4.771000000
H     0.087000000     1.623000000     5.420000000
C    -0.105000000     3.912000000     2.927000000
H    -0.672000000     4.157000000     2.033000000
C     0.988000000     4.721000000     3.296000000
O     1.386000000     5.800000000     2.506000000
C     1.757000000     4.312000000     4.396000000
H     2.583000000     4.958000000     4.679000000
C     1.501000000     3.155000000     5.165000000
O     2.169000000     2.826000000     6.276000000
C     2.419000000     1.484000000     6.640000000
C     3.037000000     0.690000000     5.713000000
H     3.350000000     1.040000000     4.732000000
C     2.100000000     1.092000000     7.906000000
H     1.497000000     1.723000000     8.555000000
C     2.323000000    -0.277000000     8.264000000
H     2.016000000    -0.644000000     9.240000000
C     3.106000000    -1.103000000     7.419000000
H     3.511000000    -2.064000000     7.725000000
C     3.402000000    -0.614000000     6.143000000
O     4.227000000    -1.364000000     5.341000000
C     3.772000000    -1.951000000     4.214000000
C     4.720000000    -2.313000000     3.245000000
H     5.773000000    -2.140000000     3.450000000
C     4.322000000    -3.023000000     2.036000000
O     5.247000000    -3.214000000     0.986000000
C     4.977000000    -4.078000000    -0.037000000
C     4.985000000    -3.634000000    -1.309000000
H     5.037000000    -2.558000000    -1.456000000
C     4.777000000    -5.411000000     0.244000000
H     4.894000000    -5.805000000     1.250000000
C     4.667000000    -6.294000000    -0.819000000
H     4.667000000    -7.361000000    -0.616000000
C     4.647000000    -5.840000000    -2.119000000
H     4.642000000    -6.551000000    -2.941000000
C     4.698000000    -4.491000000    -2.340000000
O     4.622000000    -3.907000000    -3.636000000
C     3.459000000    -3.338000000    -4.135000000
C     3.521000000    -2.519000000    -5.258000000
H     4.440000000    -2.557000000    -5.838000000
C     2.421000000    -1.848000000    -5.759000000
O     2.571000000    -0.967000000    -6.841000000
C     1.905000000     0.276000000    -6.896000000
C     2.009000000     1.289000000    -5.949000000
H     2.718000000     1.146000000    -5.137000000
C     1.067000000     0.517000000    -8.031000000
H     1.075000000    -0.243000000    -8.808000000
C     0.354000000     1.709000000    -8.193000000
H    -0.086000000     1.920000000    -9.164000000
C     0.440000000     2.687000000    -7.179000000
H    -0.039000000     3.662000000    -7.226000000
C     1.331000000     2.481000000    -6.122000000
O     1.540000000     3.458000000    -5.186000000
C     0.621000000     3.825000000    -4.239000000
C     0.828000000     4.996000000    -3.563000000
H     1.673000000     5.612000000    -3.858000000
C    -0.138000000     5.430000000    -2.646000000
O     0.166000000     6.608000000    -2.051000000
C     0.030000000     6.863000000    -0.707000000
C    -0.658000000     7.995000000    -0.400000000
H    -1.061000000     8.615000000    -1.197000000
C    -0.848000000     8.331000000     0.980000000
H    -1.535000000     9.124000000     1.265000000
C    -0.173000000     7.595000000     1.959000000
H    -0.387000000     7.841000000     2.996000000
C     0.511000000     6.421000000     1.636000000
C     0.669000000     6.046000000     0.233000000
H     1.323000000     5.219000000    -0.032000000
C     2.654000000     0.252000000     1.215000000
H     3.217000000     0.552000000     2.096000000
C     1.263000000     0.409000000     1.181000000
H     0.698000000     0.596000000     2.090000000
C     0.577000000     0.138000000     0.009000000
H    -0.524000000     0.269000000    -0.041000000
C     1.266000000    -0.138000000    -1.161000000
H     0.758000000    -0.358000000    -2.097000000
C     2.668000000    -0.314000000    -1.110000000
H     3.214000000    -0.617000000    -2.000000000
C     3.380000000    -0.074000000     0.049000000
C     4.908000000    -0.100000000     0.055000000
O     5.555000000    -0.182000000    -1.010000000
O     5.436000000     0.258000000     1.053000000
O     4.495000000     4.949000000     0.771000000
H     4.118000000     4.573000000    -0.024000000
H     4.630000000     4.199000000     1.350000000
O     9.428000000     0.949000000    -1.723000000
H     8.972000000     1.639000000    -2.205000000
H     9.377000000     1.223000000    -0.807000000
O     9.903000000     1.961000000     1.001000000
H    10.299000000     1.096000000     1.111000000
H     8.995000000     1.846000000     1.282000000
O    10.447000000    -0.836000000     0.791000000
H    10.754000000    -1.379000000     0.065000000
H     9.493000000    -0.875000000     0.734000000
O     6.677000000     2.200000000    -5.461000000
H     6.117000000     1.928000000    -6.188000000
H     6.149000000     2.041000000    -4.679000000
O     3.453000000     3.246000000    -1.292000000
H     3.128000000     2.522000000    -0.757000000
H     2.698000000     3.513000000    -1.817000000
O    10.998000000    -1.291000000    -2.319000000
H    10.642000000    -1.859000000    -3.002000000
H    10.342000000    -0.602000000    -2.216000000
O     7.098000000    -0.175000000     4.740000000
H     7.549000000    -0.207000000     5.584000000
H     6.191000000    -0.403000000     4.944000000
O     7.656000000    -1.699000000    -0.198000000
H     7.807000000    -1.520000000    -1.126000000
H     6.798000000    -1.315000000    -0.017000000
O     5.400000000     2.760000000     1.873000000
H     5.190000000     1.851000000     1.659000000
H     5.733000000     2.724000000     2.769000000
O     8.063000000    -4.628000000    -2.421000000
H     8.322000000    -4.138000000    -3.201000000
H     7.325000000    -5.165000000    -2.709000000
O     8.071000000     0.330000000     2.078000000
H     7.147000000     0.267000000     1.835000000
H     8.107000000    -0.005000000     2.974000000
O     7.353000000    -2.958000000    -4.923000000
H     7.361000000    -2.329000000    -5.644000000
H     7.173000000    -2.430000000    -4.145000000
O     6.683000000     2.347000000    -0.785000000
H     6.359000000     1.518000000    -0.434000000
H     6.273000000     3.017000000    -0.237000000
O     8.324000000    -4.018000000     1.094000000
H     8.321000000    -3.840000000     0.153000000
H     7.402000000    -3.980000000     1.348000000
O     5.268000000     1.781000000    -3.331000000
H     5.558000000     1.182000000    -2.643000000
H     5.135000000     2.616000000    -2.882000000
O     6.383000000     2.775000000     4.443000000
H     6.132000000     3.128000000     5.296000000
H     6.806000000     1.941000000     4.644000000
O     8.043000000     2.557000000    -3.229000000
H     7.622000000     2.530000000    -4.088000000
H     7.317000000     2.562000000    -2.606000000
O     7.460000000    -0.744000000    -2.741000000
H     6.651000000    -0.753000000    -2.228000000
H     7.987000000    -0.051000000    -2.344000000
