215
-1441.65970
C     2.528000000    -3.775000000     2.752000000
H     2.239000000    -4.655000000     2.183000000
C     1.613000000    -2.865000000     3.357000000
C     2.164000000    -1.728000000     3.984000000
H     1.483000000    -1.134000000     4.588000000
C     0.111000000    -2.972000000     3.168000000
O    -0.237000000    -4.307000000     2.648000000
H    -0.115000000    -2.147000000     2.476000000
O    -0.628000000    -2.578000000     4.303000000
C    -1.772000000    -1.801000000     4.033000000
C    -1.654000000    -0.403000000     4.324000000
H    -0.762000000    -0.167000000     4.899000000
C    -2.617000000     0.567000000     4.044000000
O    -2.283000000     1.856000000     4.196000000
C    -3.766000000     0.145000000     3.396000000
C    -4.811000000     1.094000000     2.889000000
H    -5.711000000     0.532000000     2.633000000
C    -4.412000000     1.610000000     1.529000000
C    -4.940000000     1.121000000     0.325000000
H    -5.519000000     0.204000000     0.250000000
H    -5.011000000     1.948000000     3.539000000
C    -3.858000000    -1.298000000     3.084000000
H    -4.664000000    -1.659000000     2.451000000
C    -2.940000000    -2.219000000     3.421000000
C    -3.084000000    -3.720000000     3.008000000
H    -4.135000000    -4.015000000     3.017000000
H    -2.682000000    -4.348000000     3.806000000
C    -2.365000000    -3.942000000     1.689000000
C    -3.148000000    -3.832000000     0.529000000
H    -4.229000000    -3.726000000     0.556000000
C    -1.009000000    -4.351000000     1.542000000
C    -0.381000000    -4.447000000     0.295000000
H     0.687000000    -4.626000000     0.194000000
C    -1.176000000    -4.239000000    -0.833000000
O    -0.431000000    -4.362000000    -1.954000000
C    -0.266000000    -3.154000000    -2.740000000
C     1.111000000    -3.020000000    -3.343000000
C     1.312000000    -2.285000000    -4.533000000
H     0.450000000    -1.797000000    -4.982000000
C     2.167000000    -3.665000000    -2.706000000
H     2.028000000    -4.328000000    -1.856000000
O    -1.316000000    -3.113000000    -3.709000000
H    -0.306000000    -2.277000000    -2.077000000
C    -2.573000000    -3.982000000    -0.723000000
C    -3.473000000    -3.829000000    -1.983000000
H    -4.496000000    -3.999000000    -1.642000000
H    -3.295000000    -4.654000000    -2.676000000
C    -3.364000000    -2.422000000    -2.645000000
C    -4.281000000    -1.476000000    -2.241000000
H    -5.144000000    -1.739000000    -1.635000000
C    -2.293000000    -2.113000000    -3.508000000
C    -2.163000000    -0.836000000    -3.945000000
H    -1.329000000    -0.547000000    -4.580000000
C    -3.118000000     0.149000000    -3.554000000
O    -2.752000000     1.467000000    -3.795000000
C    -2.076000000     2.160000000    -2.715000000
C    -0.820000000     2.869000000    -3.159000000
C    -0.312000000     2.640000000    -4.415000000
H    -0.726000000     1.912000000    -5.108000000
C    -0.153000000     3.577000000    -2.267000000
H    -0.465000000     3.593000000    -1.226000000
O    -2.915000000     3.080000000    -2.074000000
H    -1.715000000     1.355000000    -2.059000000
C    -4.145000000    -0.147000000    -2.640000000
C    -5.064000000     0.943000000    -2.147000000
H    -6.034000000     0.470000000    -1.982000000
H    -5.171000000     1.636000000    -2.984000000
C    -4.499000000     1.614000000    -0.920000000
C    -3.639000000     2.713000000    -0.959000000
C    -3.126000000     3.239000000     0.225000000
H    -2.365000000     4.014000000     0.257000000
C    -3.531000000     2.741000000     1.448000000
O    -2.936000000     3.261000000     2.520000000
C    -1.837000000     2.528000000     3.040000000
H    -1.558000000     1.809000000     2.255000000
C    -0.683000000     3.510000000     3.360000000
C     0.081000000     3.225000000     4.524000000
H    -0.038000000     2.271000000     5.031000000
C    -0.404000000     4.774000000     2.805000000
H    -1.091000000     5.115000000     2.035000000
C     0.575000000     5.631000000     3.245000000
O     0.862000000     6.816000000     2.595000000
C     1.415000000     5.230000000     4.314000000
H     2.244000000     5.808000000     4.715000000
C     1.112000000     4.072000000     4.997000000
O     1.828000000     3.738000000     6.086000000
C     2.222000000     2.424000000     6.232000000
C     2.974000000     1.735000000     5.237000000
H     3.235000000     2.166000000     4.274000000
C     1.830000000     1.794000000     7.402000000
H     1.460000000     2.501000000     8.140000000
C     2.214000000     0.481000000     7.675000000
H     1.978000000     0.101000000     8.665000000
C     2.808000000    -0.279000000     6.716000000
H     3.256000000    -1.257000000     6.872000000
C     3.246000000     0.378000000     5.512000000
O     3.997000000    -0.335000000     4.554000000
C     3.529000000    -1.479000000     3.981000000
C     4.375000000    -2.299000000     3.207000000
H     5.457000000    -2.204000000     3.164000000
C     3.847000000    -3.394000000     2.571000000
O     4.776000000    -4.267000000     1.991000000
C     4.481000000    -4.971000000     0.851000000
C     4.478000000    -4.275000000    -0.383000000
H     4.570000000    -3.193000000    -0.444000000
C     4.368000000    -6.426000000     0.859000000
H     4.415000000    -6.949000000     1.812000000
C     4.338000000    -7.070000000    -0.405000000
H     4.364000000    -8.157000000    -0.378000000
C     4.302000000    -6.345000000    -1.605000000
H     4.283000000    -6.796000000    -2.594000000
C     4.389000000    -4.993000000    -1.575000000
O     4.446000000    -4.332000000    -2.780000000
C     3.420000000    -3.607000000    -3.303000000
C     3.675000000    -2.873000000    -4.419000000
H     4.700000000    -2.893000000    -4.780000000
C     2.600000000    -2.144000000    -4.986000000
O     2.995000000    -1.481000000    -6.127000000
C     2.281000000    -0.484000000    -6.723000000
C     2.127000000     0.734000000    -6.075000000
H     2.596000000     0.920000000    -5.112000000
C     1.925000000    -0.527000000    -8.081000000
H     2.111000000    -1.462000000    -8.602000000
C     1.346000000     0.516000000    -8.723000000
H     1.163000000     0.454000000    -9.793000000
C     1.038000000     1.665000000    -8.067000000
H     0.868000000     2.637000000    -8.522000000
C     1.441000000     1.813000000    -6.728000000
O     1.308000000     3.071000000    -6.125000000
C     0.871000000     3.238000000    -4.821000000
C     1.500000000     4.132000000    -3.963000000
H     2.372000000     4.688000000    -4.299000000
C     1.001000000     4.296000000    -2.679000000
O     1.741000000     5.047000000    -1.728000000
C     1.097000000     5.946000000    -0.887000000
C     0.331000000     6.950000000    -1.485000000
H     0.235000000     6.938000000    -2.567000000
C    -0.027000000     8.008000000    -0.688000000
H    -0.603000000     8.818000000    -1.129000000
C     0.100000000     7.936000000     0.689000000
H    -0.338000000     8.685000000     1.344000000
C     0.781000000     6.893000000     1.253000000
C     1.442000000     5.982000000     0.465000000
H     2.033000000     5.200000000     0.935000000
C     2.648000000    -0.212000000     0.774000000
H     3.215000000    -0.262000000     1.701000000
C     1.313000000    -0.182000000     1.022000000
H     0.975000000    -0.204000000     2.055000000
C     0.416000000    -0.049000000     0.006000000
H    -0.674000000    -0.210000000     0.250000000
C     0.930000000     0.152000000    -1.255000000
H     0.175000000     0.285000000    -2.025000000
C     2.292000000     0.095000000    -1.473000000
H     2.604000000     0.294000000    -2.495000000
C     3.224000000    -0.142000000    -0.499000000
C     4.727000000    -0.139000000    -0.834000000
O     5.199000000     0.508000000    -1.713000000
O     5.572000000    -0.725000000    -0.142000000
O     8.247000000    -5.207000000    -0.394000000
H     7.438000000    -4.729000000    -0.577000000
H     8.429000000    -5.026000000     0.528000000
O     4.719000000     3.468000000     0.490000000
H     3.798000000     3.209000000     0.489000000
H     4.918000000     3.640000000     1.411000000
O     6.557000000    -0.307000000     5.053000000
H     6.726000000    -1.062000000     5.616000000
H     5.617000000    -0.344000000     4.877000000
O     8.642000000     0.874000000     3.260000000
H     9.340000000     0.221000000     3.193000000
H     7.910000000     0.402000000     3.658000000
O    10.539000000     0.884000000    -3.638000000
H     9.634000000     1.168000000    -3.773000000
H    10.736000000     0.339000000    -4.400000000
O     8.024000000    -3.390000000    -3.727000000
H     7.856000000    -3.072000000    -4.614000000
H     7.839000000    -2.637000000    -3.164000000
O     2.066000000     2.867000000     0.007000000
H     1.666000000     2.202000000    -0.552000000
H     2.142000000     3.638000000    -0.555000000
O     7.345000000    -0.809000000    -2.653000000
H     6.799000000    -0.677000000    -1.878000000
H     6.880000000    -0.351000000    -3.354000000
O     7.575000000    -2.057000000     1.213000000
H     6.826000000    -1.722000000     0.720000000
H     8.271000000    -1.420000000     1.053000000
O     6.215000000     3.618000000     3.283000000
H     6.376000000     2.909000000     2.660000000
H     6.237000000     3.193000000     4.141000000
O     6.834000000     1.795000000     1.335000000
H     6.621000000     1.046000000     0.779000000
H     7.725000000     1.622000000     1.639000000
O     6.557000000     2.745000000    -1.455000000
H     6.243000000     1.867000000    -1.671000000
H     6.042000000     3.003000000    -0.691000000
O    10.234000000    -0.818000000     1.458000000
H    10.279000000    -0.633000000     0.520000000
H    10.704000000    -1.646000000     1.561000000
O     8.197000000    -4.413000000     2.116000000
H     7.855000000    -3.606000000     1.731000000
H     8.916000000    -4.125000000     2.678000000
O     5.796000000     0.237000000    -6.783000000
H     5.213000000     0.859000000    -7.219000000
H     5.732000000     0.459000000    -5.854000000
O     6.660000000     5.296000000    -3.128000000
H     6.186000000     5.432000000    -2.308000000
H     5.977000000     5.268000000    -3.798000000
O     9.430000000     3.684000000    -1.178000000
H     8.714000000     3.052000000    -1.114000000
H     9.040000000     4.516000000    -0.910000000
O     9.771000000    -0.238000000    -1.226000000
H     8.941000000    -0.624000000    -1.506000000
H     9.992000000     0.385000000    -1.919000000
O     5.466000000     1.263000000    -4.239000000
H     5.330000000     0.758000000    -3.438000000
H     5.194000000     2.152000000    -4.011000000
