215
-1465.51971
C     3.240000000    -3.190000000     1.412000000
H     2.845000000    -3.766000000     0.579000000
C     2.388000000    -2.967000000     2.486000000
C     2.828000000    -2.337000000     3.616000000
H     2.210000000    -1.977000000     4.435000000
C     0.927000000    -3.329000000     2.388000000
O     0.748000000    -4.509000000     1.581000000
H     0.439000000    -2.481000000     1.884000000
O     0.213000000    -3.417000000     3.635000000
C    -0.936000000    -2.687000000     3.759000000
C    -0.830000000    -1.413000000     4.343000000
H     0.126000000    -1.058000000     4.719000000
C    -1.936000000    -0.589000000     4.260000000
O    -1.783000000     0.664000000     4.703000000
C    -3.136000000    -0.968000000     3.663000000
C    -4.309000000     0.041000000     3.591000000
H    -5.280000000    -0.446000000     3.706000000
C    -4.237000000     0.778000000     2.326000000
C    -4.869000000     0.333000000     1.124000000
H    -5.506000000    -0.545000000     1.058000000
H    -4.246000000     0.742000000     4.426000000
C    -3.233000000    -2.293000000     3.152000000
H    -4.159000000    -2.610000000     2.678000000
C    -2.126000000    -3.150000000     3.186000000
C    -2.183000000    -4.451000000     2.309000000
H    -3.111000000    -5.025000000     2.282000000
H    -1.614000000    -5.158000000     2.917000000
C    -1.620000000    -4.401000000     0.884000000
C    -2.591000000    -4.225000000    -0.147000000
H    -3.618000000    -4.025000000     0.147000000
C    -0.256000000    -4.536000000     0.583000000
C     0.187000000    -4.561000000    -0.712000000
H     1.263000000    -4.634000000    -0.846000000
C    -0.795000000    -4.404000000    -1.745000000
O    -0.221000000    -4.071000000    -2.950000000
C    -0.183000000    -2.712000000    -3.368000000
C     1.155000000    -2.281000000    -4.123000000
C     1.304000000    -1.093000000    -4.805000000
H     0.515000000    -0.347000000    -4.756000000
C     2.306000000    -3.090000000    -3.930000000
H     2.207000000    -3.864000000    -3.173000000
O    -1.281000000    -2.473000000    -4.228000000
H    -0.248000000    -2.102000000    -2.455000000
C    -2.172000000    -4.305000000    -1.503000000
C    -3.196000000    -3.955000000    -2.569000000
H    -4.181000000    -4.242000000    -2.194000000
H    -3.083000000    -4.524000000    -3.495000000
C    -3.223000000    -2.453000000    -2.765000000
C    -4.209000000    -1.720000000    -2.114000000
H    -4.907000000    -2.193000000    -1.428000000
C    -2.323000000    -1.771000000    -3.626000000
C    -2.277000000    -0.319000000    -3.705000000
H    -1.521000000     0.194000000    -4.294000000
C    -3.276000000     0.312000000    -3.043000000
O    -3.244000000     1.681000000    -3.163000000
C    -2.566000000     2.397000000    -2.080000000
C    -1.571000000     3.454000000    -2.606000000
C    -0.993000000     3.364000000    -3.882000000
H    -1.066000000     2.378000000    -4.333000000
C    -1.301000000     4.625000000    -1.879000000
H    -1.744000000     4.730000000    -0.892000000
O    -3.525000000     2.898000000    -1.154000000
H    -1.944000000     1.635000000    -1.587000000
C    -4.226000000    -0.291000000    -2.215000000
C    -5.180000000     0.546000000    -1.352000000
H    -6.137000000     0.043000000    -1.200000000
H    -5.469000000     1.451000000    -1.891000000
C    -4.588000000     0.991000000    -0.046000000
C    -3.870000000     2.201000000    -0.078000000
C    -3.364000000     2.713000000     1.123000000
H    -2.784000000     3.629000000     1.195000000
C    -3.573000000     2.020000000     2.272000000
O    -2.859000000     2.431000000     3.393000000
C    -1.652000000     1.712000000     3.697000000
H    -1.321000000     1.190000000     2.787000000
C    -0.463000000     2.614000000     4.042000000
C     0.590000000     2.215000000     4.890000000
H     0.411000000     1.333000000     5.499000000
C    -0.395000000     3.805000000     3.356000000
H    -1.238000000     4.061000000     2.720000000
C     0.686000000     4.656000000     3.594000000
O     0.650000000     5.937000000     3.053000000
C     1.715000000     4.268000000     4.339000000
H     2.563000000     4.925000000     4.516000000
C     1.617000000     3.083000000     5.104000000
O     2.710000000     2.709000000     5.914000000
C     2.951000000     1.400000000     6.280000000
C     3.518000000     0.495000000     5.338000000
H     3.596000000     0.708000000     4.275000000
C     2.782000000     1.046000000     7.635000000
H     2.336000000     1.782000000     8.299000000
C     2.984000000    -0.303000000     7.929000000
H     2.847000000    -0.565000000     8.975000000
C     3.589000000    -1.131000000     7.067000000
H     3.841000000    -2.148000000     7.358000000
C     3.930000000    -0.740000000     5.746000000
O     4.718000000    -1.545000000     4.945000000
C     4.178000000    -1.927000000     3.704000000
C     5.006000000    -2.167000000     2.603000000
H     6.021000000    -1.781000000     2.576000000
C     4.569000000    -2.851000000     1.485000000
O     5.366000000    -2.984000000     0.366000000
C     5.212000000    -3.873000000    -0.657000000
C     5.002000000    -3.315000000    -1.974000000
H     5.031000000    -2.229000000    -2.016000000
C     5.217000000    -5.230000000    -0.515000000
H     5.332000000    -5.619000000     0.493000000
C     5.211000000    -6.076000000    -1.624000000
H     5.312000000    -7.157000000    -1.574000000
C     5.020000000    -5.544000000    -2.900000000
H     4.908000000    -6.207000000    -3.755000000
C     4.951000000    -4.144000000    -3.104000000
O     4.587000000    -3.728000000    -4.304000000
C     3.564000000    -2.807000000    -4.496000000
C     3.637000000    -1.697000000    -5.334000000
H     4.531000000    -1.580000000    -5.941000000
C     2.600000000    -0.827000000    -5.418000000
O     2.689000000     0.268000000    -6.210000000
C     1.669000000     1.064000000    -6.604000000
C     1.418000000     2.206000000    -5.970000000
H     2.153000000     2.611000000    -5.279000000
C     0.725000000     0.562000000    -7.546000000
H     1.009000000    -0.305000000    -8.137000000
C    -0.429000000     1.222000000    -7.784000000
H    -1.090000000     0.900000000    -8.584000000
C    -0.627000000     2.522000000    -7.171000000
H    -1.551000000     3.077000000    -7.310000000
C     0.336000000     3.014000000    -6.298000000
O     0.281000000     4.236000000    -5.674000000
C    -0.266000000     4.375000000    -4.428000000
C     0.006000000     5.453000000    -3.667000000
H     0.701000000     6.211000000    -4.019000000
C    -0.456000000     5.590000000    -2.385000000
O     0.000000000     6.697000000    -1.644000000
C    -0.454000000     6.871000000    -0.315000000
C    -1.645000000     7.565000000    -0.081000000
H    -2.043000000     8.121000000    -0.927000000
C    -2.121000000     7.683000000     1.233000000
H    -3.034000000     8.239000000     1.432000000
C    -1.366000000     7.118000000     2.278000000
H    -1.638000000     7.195000000     3.328000000
C    -0.221000000     6.386000000     2.001000000
C     0.292000000     6.253000000     0.721000000
H     1.239000000     5.744000000     0.560000000
C     2.383000000     0.258000000     1.192000000
H     2.963000000     0.392000000     2.101000000
C     0.998000000     0.056000000     1.241000000
H     0.426000000    -0.040000000     2.160000000
C     0.287000000    -0.082000000     0.096000000
H    -0.793000000    -0.335000000     0.101000000
C     0.835000000    -0.013000000    -1.175000000
H     0.256000000    -0.091000000    -2.091000000
C     2.181000000     0.252000000    -1.233000000
H     2.589000000     0.198000000    -2.239000000
C     2.952000000     0.362000000    -0.062000000
C     4.472000000     0.561000000    -0.213000000
O     4.934000000     0.933000000    -1.290000000
O     5.109000000     0.466000000     0.758000000
O     7.346000000     4.908000000     3.140000000
H     6.883000000     4.282000000     3.696000000
H     7.612000000     4.398000000     2.375000000
O     3.642000000     4.433000000     0.121000000
H     2.760000000     4.059000000     0.121000000
H     4.078000000     4.018000000     0.865000000
O     5.265000000     1.783000000    -4.507000000
H     6.171000000     1.585000000    -4.273000000
H     5.051000000     1.152000000    -5.194000000
O     8.032000000     3.916000000     0.709000000
H     8.506000000     3.087000000     0.780000000
H     7.310000000     3.729000000     0.109000000
O    10.310000000     1.032000000     1.323000000
H    10.627000000     0.178000000     1.029000000
H     9.383000000     0.890000000     1.514000000
O     1.413000000     3.170000000    -0.774000000
H     1.491000000     2.216000000    -0.743000000
H     1.269000000     3.368000000    -1.700000000
O     6.836000000     0.274000000     4.902000000
H     6.219000000     0.137000000     5.621000000
H     7.410000000    -0.491000000     4.930000000
O     4.587000000     5.958000000     3.078000000
H     4.474000000     5.031000000     2.866000000
H     5.247000000     6.266000000     2.457000000
O     7.286000000    -1.278000000    -0.589000000
H     7.144000000    -0.676000000    -1.320000000
H     6.592000000    -1.066000000     0.035000000
O     4.691000000     3.120000000     2.001000000
H     4.803000000     2.278000000     1.561000000
H     5.089000000     2.995000000     2.863000000
O     8.926000000    -3.685000000    -1.028000000
H     8.350000000    -2.962000000    -0.779000000
H     9.313000000    -3.408000000    -1.858000000
O     7.520000000     0.881000000     1.708000000
H     6.721000000     0.609000000     1.256000000
H     7.339000000     0.715000000     2.633000000
O     8.029000000    -2.100000000    -4.214000000
H     7.188000000    -2.390000000    -4.567000000
H     7.801000000    -1.425000000    -3.575000000
O     6.163000000     3.383000000    -1.394000000
H     5.802000000     2.498000000    -1.436000000
H     5.395000000     3.954000000    -1.380000000
O     3.342000000     2.812000000    -3.057000000
H     4.067000000     2.262000000    -3.353000000
H     3.287000000     2.649000000    -2.115000000
O     3.462000000     5.238000000    -4.357000000
H     2.912000000     5.075000000    -5.123000000
H     3.415000000     4.427000000    -3.851000000
O     5.818000000     3.111000000     4.490000000
H     5.494000000     3.400000000     5.344000000
H     6.388000000     2.369000000     4.689000000
O     8.209000000     2.526000000    -3.402000000
H     8.738000000     3.050000000    -4.003000000
H     7.990000000     3.126000000    -2.689000000
O     6.971000000     0.216000000    -2.904000000
H     6.157000000     0.585000000    -2.561000000
H     7.508000000     0.979000000    -3.117000000
