215
-1454.74958
C     3.550000000    -2.990000000     1.126000000
H     3.295000000    -3.147000000     0.081000000
C     2.623000000    -3.206000000     2.196000000
C     3.091000000    -3.012000000     3.517000000
H     2.433000000    -3.229000000     4.354000000
C     1.231000000    -3.667000000     1.842000000
O     1.160000000    -4.681000000     0.838000000
H     0.776000000    -2.753000000     1.432000000
O     0.487000000    -3.971000000     2.950000000
C    -0.786000000    -3.454000000     3.019000000
C    -0.888000000    -2.310000000     3.781000000
H    -0.066000000    -2.036000000     4.438000000
C    -2.044000000    -1.589000000     3.685000000
O    -2.079000000    -0.291000000     4.296000000
C    -3.137000000    -2.020000000     2.996000000
C    -4.420000000    -1.186000000     3.007000000
H    -5.242000000    -1.892000000     2.873000000
C    -4.468000000    -0.140000000     1.890000000
C    -5.008000000    -0.439000000     0.627000000
H    -5.410000000    -1.442000000     0.508000000
H    -4.655000000    -0.723000000     3.968000000
C    -3.131000000    -3.235000000     2.358000000
H    -4.040000000    -3.566000000     1.863000000
C    -1.873000000    -3.898000000     2.281000000
C    -1.728000000    -5.109000000     1.336000000
H    -2.706000000    -5.541000000     1.114000000
H    -1.185000000    -5.849000000     1.928000000
C    -1.086000000    -4.719000000     0.012000000
C    -2.003000000    -4.399000000    -1.018000000
H    -3.027000000    -4.298000000    -0.667000000
C     0.263000000    -4.507000000    -0.181000000
C     0.750000000    -4.137000000    -1.419000000
H     1.824000000    -3.997000000    -1.508000000
C    -0.102000000    -3.976000000    -2.479000000
O     0.515000000    -3.540000000    -3.633000000
C     0.391000000    -2.089000000    -3.854000000
C     1.683000000    -1.525000000    -4.476000000
C     1.549000000    -0.429000000    -5.357000000
H     0.572000000    -0.030000000    -5.620000000
C     2.952000000    -1.977000000    -4.166000000
H     3.038000000    -2.677000000    -3.339000000
O    -0.771000000    -1.801000000    -4.641000000
H     0.213000000    -1.525000000    -2.927000000
C    -1.499000000    -4.032000000    -2.286000000
C    -2.488000000    -3.752000000    -3.375000000
H    -3.414000000    -4.286000000    -3.152000000
H    -1.971000000    -4.055000000    -4.288000000
C    -2.836000000    -2.270000000    -3.363000000
C    -3.846000000    -1.771000000    -2.612000000
H    -4.536000000    -2.375000000    -2.028000000
C    -1.958000000    -1.372000000    -4.096000000
C    -2.149000000    -0.067000000    -4.041000000
H    -1.526000000     0.655000000    -4.563000000
C    -3.222000000     0.427000000    -3.324000000
O    -3.404000000     1.765000000    -3.154000000
C    -3.060000000     2.481000000    -1.946000000
C    -2.089000000     3.687000000    -2.114000000
C    -1.214000000     3.787000000    -3.193000000
H    -1.256000000     3.041000000    -3.982000000
C    -1.885000000     4.516000000    -1.033000000
H    -2.576000000     4.612000000    -0.200000000
O    -4.205000000     2.772000000    -1.152000000
H    -2.513000000     1.699000000    -1.399000000
C    -4.021000000    -0.408000000    -2.580000000
C    -5.192000000     0.209000000    -1.776000000
H    -5.973000000    -0.555000000    -1.768000000
H    -5.672000000     1.055000000    -2.273000000
C    -4.867000000     0.548000000    -0.391000000
C    -4.387000000     1.868000000    -0.131000000
C    -3.951000000     2.198000000     1.168000000
H    -3.537000000     3.180000000     1.380000000
C    -3.939000000     1.163000000     2.095000000
O    -3.171000000     1.470000000     3.226000000
C    -1.904000000     0.816000000     3.402000000
H    -1.478000000     0.444000000     2.458000000
C    -0.955000000     1.747000000     4.129000000
C     0.069000000     1.257000000     4.937000000
H     0.271000000     0.211000000     5.151000000
C    -1.077000000     3.104000000     3.991000000
H    -1.922000000     3.534000000     3.458000000
C    -0.178000000     3.994000000     4.581000000
O    -0.464000000     5.349000000     4.502000000
C     0.900000000     3.472000000     5.307000000
H     1.526000000     4.188000000     5.834000000
C     1.028000000     2.129000000     5.484000000
O     1.981000000     1.670000000     6.378000000
C     2.350000000     0.388000000     6.613000000
C     3.269000000    -0.184000000     5.789000000
H     3.736000000     0.450000000     5.040000000
C     1.630000000    -0.410000000     7.515000000
H     0.897000000    -0.016000000     8.215000000
C     1.981000000    -1.775000000     7.723000000
H     1.576000000    -2.299000000     8.585000000
C     3.049000000    -2.250000000     6.953000000
H     3.464000000    -3.232000000     7.165000000
C     3.662000000    -1.502000000     5.984000000
O     4.603000000    -2.029000000     5.118000000
C     4.324000000    -2.441000000     3.837000000
C     5.147000000    -2.164000000     2.801000000
H     6.056000000    -1.605000000     3.005000000
C     4.799000000    -2.470000000     1.469000000
O     5.724000000    -2.070000000     0.470000000
C     5.781000000    -2.704000000    -0.790000000
C     5.451000000    -1.879000000    -1.859000000
H     5.148000000    -0.844000000    -1.723000000
C     6.300000000    -3.995000000    -0.936000000
H     6.639000000    -4.490000000    -0.030000000
C     6.467000000    -4.652000000    -2.154000000
H     6.993000000    -5.593000000    -2.295000000
C     6.116000000    -3.835000000    -3.263000000
H     6.152000000    -4.274000000    -4.257000000
C     5.618000000    -2.493000000    -3.104000000
O     5.348000000    -1.741000000    -4.274000000
C     4.087000000    -1.375000000    -4.670000000
C     3.923000000    -0.401000000    -5.633000000
H     4.846000000    -0.033000000    -6.073000000
C     2.678000000     0.140000000    -5.946000000
O     2.550000000     1.160000000    -6.811000000
C     1.634000000     2.215000000    -6.671000000
C     1.684000000     3.018000000    -5.477000000
H     2.437000000     2.898000000    -4.703000000
C     0.741000000     2.563000000    -7.665000000
H     0.860000000     2.090000000    -8.637000000
C    -0.198000000     3.574000000    -7.424000000
H    -0.949000000     3.845000000    -8.161000000
C    -0.226000000     4.224000000    -6.247000000
H    -1.004000000     4.968000000    -6.097000000
C     0.768000000     4.029000000    -5.266000000
O     0.818000000     4.749000000    -4.140000000
C    -0.159000000     4.672000000    -3.154000000
C    -0.026000000     5.569000000    -2.108000000
H     0.796000000     6.276000000    -2.184000000
C    -0.909000000     5.497000000    -1.060000000
O    -0.628000000     6.427000000    -0.109000000
C    -1.291000000     6.446000000     1.099000000
C    -2.486000000     7.157000000     1.329000000
H    -3.020000000     7.657000000     0.524000000
C    -2.927000000     7.317000000     2.657000000
H    -3.832000000     7.874000000     2.887000000
C    -2.280000000     6.688000000     3.696000000
H    -2.648000000     6.654000000     4.719000000
C    -1.113000000     5.968000000     3.418000000
C    -0.646000000     5.874000000     2.168000000
H     0.266000000     5.337000000     1.919000000
C     2.574000000     0.529000000     1.485000000
H     3.003000000     0.595000000     2.482000000
C     1.308000000     0.165000000     1.264000000
H     0.703000000    -0.130000000     2.117000000
C     0.715000000     0.095000000    -0.025000000
H    -0.301000000    -0.142000000    -0.225000000
C     1.519000000     0.342000000    -1.154000000
H     1.135000000     0.307000000    -2.170000000
C     2.863000000     0.601000000    -0.935000000
H     3.501000000     0.635000000    -1.814000000
C     3.390000000     0.755000000     0.415000000
C     4.870000000     1.050000000     0.648000000
O     5.596000000     1.260000000    -0.307000000
O     5.209000000     1.367000000     1.741000000
O     5.590000000     2.323000000    -2.588000000
H     5.434000000     1.925000000    -1.731000000
H     5.757000000     3.245000000    -2.397000000
O     5.537000000     4.987000000    -2.541000000
H     5.028000000     5.255000000    -1.776000000
H     5.029000000     5.302000000    -3.289000000
O     4.442000000     5.000000000     5.424000000
H     4.900000000     4.707000000     6.212000000
H     4.436000000     4.233000000     4.851000000
O    10.257000000     1.678000000    -0.971000000
H     9.718000000     0.938000000    -1.251000000
H     9.813000000     2.446000000    -1.330000000
O     6.684000000     7.074000000    -0.315000000
H     5.791000000     6.948000000    -0.637000000
H     6.753000000     6.483000000     0.435000000
O     4.914000000     3.110000000    -5.012000000
H     4.991000000     2.665000000    -4.168000000
H     5.561000000     3.814000000    -4.972000000
O     8.663000000    -2.039000000     1.038000000
H     9.484000000    -2.298000000     0.621000000
H     8.151000000    -2.846000000     1.082000000
O     8.708000000    -1.334000000     3.960000000
H     8.613000000    -0.432000000     3.653000000
H     8.810000000    -1.850000000     3.160000000
O     4.025000000     6.134000000    -0.258000000
H     3.924000000     5.951000000     0.677000000
H     3.342000000     6.776000000    -0.451000000
O     7.516000000     0.968000000     3.076000000
H     6.648000000     0.734000000     2.747000000
H     7.685000000     1.835000000     2.709000000
O     1.333000000     3.075000000     2.105000000
H     0.623000000     2.647000000     2.583000000
H     1.571000000     2.450000000     1.420000000
O     3.644000000     5.030000000     2.091000000
H     2.767000000     4.648000000     2.128000000
H     4.178000000     4.456000000     2.639000000
O     9.973000000     3.783000000     2.317000000
H     9.345000000     3.747000000     1.596000000
H     9.585000000     4.394000000     2.943000000
O     8.236000000     4.353000000    -1.751000000
H     7.912000000     4.436000000    -0.854000000
H     7.620000000     4.864000000    -2.277000000
O     7.874000000    -0.179000000    -1.075000000
H     7.235000000     0.469000000    -0.777000000
H     7.737000000    -0.931000000    -0.500000000
O     7.196000000     0.178000000     6.226000000
H     8.152000000     0.136000000     6.258000000
H     7.000000000     0.498000000     5.345000000
O     7.615000000     0.847000000    -3.589000000
H     8.079000000     0.477000000    -2.837000000
H     6.895000000     1.346000000    -3.203000000
O     6.591000000     3.705000000     0.503000000
H     5.698000000     4.045000000     0.555000000
H     6.512000000     2.901000000    -0.010000000
O     5.325000000     3.339000000     3.483000000
H     6.194000000     3.725000000     3.380000000
H     5.358000000     2.534000000     2.967000000
