215
-1426.82237
C    -4.899000000    -0.320000000    -2.196000000
H    -4.502000000     0.514000000    -2.769000000
C    -4.844000000    -0.261000000    -0.784000000
C    -5.264000000    -1.412000000    -0.106000000
H    -5.252000000    -1.343000000     0.979000000
C    -4.221000000     0.973000000    -0.088000000
O    -4.514000000     2.106000000    -0.881000000
H    -3.132000000     0.825000000    -0.143000000
O    -4.662000000     1.115000000     1.251000000
C    -3.838000000     1.598000000     2.281000000
C    -3.235000000     0.594000000     3.006000000
H    -3.599000000    -0.427000000     2.924000000
C    -2.192000000     0.832000000     3.894000000
O    -1.665000000    -0.261000000     4.513000000
C    -1.768000000     2.182000000     4.106000000
C    -0.560000000     2.451000000     5.033000000
H    -0.521000000     3.496000000     5.346000000
C     0.803000000     2.158000000     4.424000000
C     1.591000000     3.230000000     3.901000000
H     1.131000000     4.212000000     3.978000000
H    -0.747000000     1.865000000     5.935000000
C    -2.277000000     3.153000000     3.178000000
H    -1.890000000     4.169000000     3.208000000
C    -3.277000000     2.876000000     2.306000000
C    -3.719000000     3.924000000     1.316000000
H    -3.543000000     4.943000000     1.669000000
H    -4.780000000     3.782000000     1.098000000
C    -2.974000000     3.815000000     0.017000000
C    -1.841000000     4.636000000    -0.202000000
H    -1.494000000     5.302000000     0.584000000
C    -3.429000000     2.974000000    -1.029000000
C    -2.640000000     2.866000000    -2.196000000
H    -2.960000000     2.130000000    -2.929000000
C    -1.462000000     3.576000000    -2.389000000
O    -0.768000000     3.338000000    -3.521000000
C     0.446000000     2.595000000    -3.275000000
C     0.556000000     1.386000000    -4.287000000
C     1.718000000     0.690000000    -4.294000000
H     2.586000000     0.863000000    -3.663000000
C    -0.478000000     1.016000000    -5.110000000
H    -1.370000000     1.636000000    -5.150000000
O     1.662000000     3.396000000    -3.195000000
H     0.447000000     2.198000000    -2.249000000
C    -1.044000000     4.436000000    -1.357000000
C     0.209000000     5.228000000    -1.537000000
H     0.110000000     6.111000000    -0.902000000
H     0.432000000     5.595000000    -2.541000000
C     1.440000000     4.516000000    -1.061000000
C     1.823000000     4.580000000     0.290000000
H     1.291000000     5.163000000     1.037000000
C     2.105000000     3.653000000    -1.950000000
C     3.221000000     2.903000000    -1.511000000
H     3.654000000     2.244000000    -2.259000000
C     3.682000000     3.053000000    -0.169000000
O     4.626000000     2.177000000     0.335000000
C     4.158000000     0.997000000     1.053000000
C     4.843000000    -0.225000000     0.480000000
C     5.558000000    -0.255000000    -0.692000000
H     5.748000000     0.650000000    -1.263000000
C     4.559000000    -1.487000000     1.062000000
H     3.899000000    -1.458000000     1.925000000
O     4.349000000     1.205000000     2.444000000
H     3.088000000     0.912000000     0.813000000
C     2.911000000     3.816000000     0.727000000
C     3.344000000     4.031000000     2.166000000
H     3.030000000     5.007000000     2.543000000
H     4.430000000     4.061000000     2.269000000
C     2.752000000     2.980000000     3.136000000
C     3.288000000     1.682000000     3.149000000
C     2.571000000     0.698000000     3.755000000
H     3.053000000    -0.272000000     3.674000000
C     1.337000000     0.863000000     4.335000000
O     0.685000000    -0.278000000     4.771000000
C    -0.416000000    -0.743000000     3.961000000
H    -0.298000000    -0.441000000     2.910000000
C    -0.375000000    -2.233000000     3.920000000
C    -1.486000000    -2.962000000     3.452000000
H    -2.317000000    -2.362000000     3.090000000
C     0.677000000    -2.993000000     4.506000000
H     1.492000000    -2.383000000     4.887000000
C     0.654000000    -4.374000000     4.541000000
O     1.795000000    -5.115000000     4.785000000
C    -0.527000000    -5.089000000     4.096000000
H    -0.606000000    -6.173000000     4.092000000
C    -1.599000000    -4.378000000     3.564000000
O    -2.750000000    -5.075000000     3.132000000
C    -4.014000000    -4.517000000     2.899000000
C    -4.348000000    -4.473000000     1.577000000
H    -3.605000000    -4.751000000     0.834000000
C    -4.798000000    -3.981000000     3.873000000
H    -4.501000000    -4.040000000     4.917000000
C    -6.118000000    -3.447000000     3.675000000
H    -6.720000000    -3.185000000     4.541000000
C    -6.442000000    -3.398000000     2.322000000
H    -7.440000000    -3.041000000     2.079000000
C    -5.604000000    -3.922000000     1.287000000
O    -5.962000000    -3.663000000    -0.062000000
C    -5.651000000    -2.547000000    -0.772000000
C    -5.665000000    -2.591000000    -2.121000000
H    -6.019000000    -3.426000000    -2.720000000
C    -5.245000000    -1.477000000    -2.842000000
O    -5.285000000    -1.656000000    -4.182000000
C    -4.625000000    -0.791000000    -5.044000000
C    -3.294000000    -0.973000000    -5.474000000
H    -2.750000000    -1.741000000    -4.929000000
C    -5.407000000     0.142000000    -5.644000000
H    -6.482000000     0.158000000    -5.481000000
C    -4.917000000     0.898000000    -6.707000000
H    -5.616000000     1.492000000    -7.291000000
C    -3.534000000     0.879000000    -6.965000000
H    -3.090000000     1.435000000    -7.787000000
C    -2.763000000    -0.212000000    -6.450000000
O    -1.403000000    -0.453000000    -6.767000000
C    -0.415000000    -0.128000000    -5.895000000
C     0.703000000    -0.891000000    -5.806000000
H     0.879000000    -1.801000000    -6.373000000
C     1.765000000    -0.528000000    -5.036000000
O     2.848000000    -1.325000000    -5.004000000
C     4.089000000    -0.844000000    -4.809000000
C     4.723000000    -1.394000000    -3.779000000
H     4.211000000    -2.001000000    -3.036000000
C     4.647000000    -0.007000000    -5.734000000
H     4.124000000     0.462000000    -6.563000000
C     6.010000000     0.407000000    -5.563000000
H     6.401000000     1.253000000    -6.122000000
C     6.661000000    -0.179000000    -4.464000000
H     7.730000000    -0.007000000    -4.372000000
C     6.036000000    -1.013000000    -3.524000000
O     6.699000000    -1.406000000    -2.416000000
C     6.093000000    -1.422000000    -1.209000000
C     5.891000000    -2.640000000    -0.614000000
H     6.281000000    -3.602000000    -0.939000000
C     5.123000000    -2.659000000     0.570000000
O     4.831000000    -3.836000000     1.314000000
C     4.534000000    -4.001000000     2.729000000
C     5.414000000    -3.532000000     3.678000000
H     6.324000000    -2.964000000     3.502000000
C     5.164000000    -3.777000000     5.066000000
H     5.932000000    -3.572000000     5.806000000
C     3.912000000    -4.333000000     5.411000000
H     3.536000000    -4.524000000     6.412000000
C     3.043000000    -4.676000000     4.420000000
C     3.394000000    -4.591000000     3.103000000
H     2.686000000    -4.835000000     2.315000000
C    -0.725000000    -3.064000000     0.239000000
H    -1.422000000    -3.719000000     0.755000000
C    -0.863000000    -1.662000000     0.362000000
H    -1.616000000    -1.262000000     1.036000000
C     0.117000000    -0.786000000    -0.137000000
H    -0.016000000     0.269000000    -0.059000000
C     1.209000000    -1.352000000    -0.817000000
H     1.943000000    -0.681000000    -1.255000000
C     1.305000000    -2.727000000    -1.049000000
H     2.085000000    -3.111000000    -1.701000000
C     0.393000000    -3.618000000    -0.473000000
C     0.435000000    -5.083000000    -0.749000000
O     1.518000000    -5.624000000    -0.997000000
O    -0.545000000    -5.751000000    -0.690000000
O     2.576000000    -9.894000000    -1.914000000
H     3.247000000   -10.427000000    -1.488000000
H     3.052000000    -9.137000000    -2.255000000
O     1.751000000    -8.110000000     0.196000000
H     1.423000000    -7.300000000    -0.194000000
H     1.919000000    -8.685000000    -0.551000000
O     0.461000000    -7.528000000    -2.891000000
H     0.519000000    -7.179000000    -2.001000000
H     0.410000000    -6.753000000    -3.450000000
O    -3.389000000    -4.928000000    -4.024000000
H    -3.038000000    -5.363000000    -4.801000000
H    -2.673000000    -4.371000000    -3.718000000
O     4.087000000    -6.146000000    -0.617000000
H     4.201000000    -5.813000000     0.273000000
H     3.212000000    -5.855000000    -0.871000000
O     0.986000000    -7.822000000     3.119000000
H     1.236000000    -7.513000000     2.248000000
H     1.749000000    -7.636000000     3.666000000
O     4.276000000    -7.678000000    -4.641000000
H     3.732000000    -7.102000000    -4.104000000
H     3.948000000    -7.556000000    -5.532000000
O     5.715000000    -5.216000000    -3.075000000
H     5.320000000    -5.635000000    -3.840000000
H     5.030000000    -5.239000000    -2.408000000
O    -1.840000000    -2.549000000    -2.725000000
H    -1.340000000    -2.161000000    -2.007000000
H    -2.742000000    -2.571000000    -2.405000000
O     6.074000000    -8.240000000    -0.928000000
H     6.072000000    -8.535000000    -1.839000000
H     5.572000000    -7.425000000    -0.939000000
O    -0.473000000    -8.643000000    -5.122000000
H    -0.207000000    -8.478000000    -4.218000000
H     0.159000000    -9.285000000    -5.445000000
O     0.256000000   -10.884000000    -2.898000000
H     0.446000000   -10.050000000    -2.468000000
H     0.916000000   -10.953000000    -3.588000000
O    -4.389000000    -8.805000000     0.407000000
H    -5.107000000    -8.176000000     0.335000000
H    -3.629000000    -8.341000000     0.056000000
O     2.384000000    -5.209000000    -3.495000000
H     1.975000000    -5.240000000    -2.630000000
H     1.916000000    -4.513000000    -3.956000000
O    -3.394000000    -7.894000000    -3.154000000
H    -3.363000000    -7.163000000    -3.770000000
H    -4.321000000    -8.127000000    -3.106000000
O    -1.492000000    -8.124000000     1.973000000
H    -0.631000000    -7.911000000     2.334000000
H    -1.438000000    -7.865000000     1.054000000
O    -2.453000000    -7.326000000    -0.729000000
H    -2.639000000    -7.430000000    -1.662000000
H    -1.769000000    -6.658000000    -0.694000000
O    -2.813000000    -7.865000000     4.276000000
H    -3.727000000    -8.013000000     4.033000000
H    -2.383000000    -7.626000000     3.455000000
O     0.087000000    -3.811000000    -4.325000000
H    -0.252000000    -3.879000000    -5.218000000
H    -0.575000000    -3.304000000    -3.855000000
