215
-1440.99899
C     3.222000000    -3.826000000     1.984000000
H     3.226000000    -4.429000000     1.079000000
C     1.966000000    -3.365000000     2.445000000
C     1.843000000    -2.517000000     3.541000000
H     0.858000000    -2.177000000     3.849000000
C     0.731000000    -3.667000000     1.681000000
O     0.878000000    -4.713000000     0.663000000
H     0.465000000    -2.703000000     1.223000000
O    -0.307000000    -4.039000000     2.554000000
C    -1.578000000    -3.537000000     2.227000000
C    -2.033000000    -2.525000000     3.098000000
H    -1.407000000    -2.100000000     3.879000000
C    -3.201000000    -1.841000000     2.824000000
O    -3.449000000    -0.735000000     3.554000000
C    -3.956000000    -2.118000000     1.696000000
C    -5.225000000    -1.390000000     1.376000000
H    -5.940000000    -2.022000000     0.844000000
C    -4.930000000    -0.088000000     0.557000000
C    -4.971000000    -0.214000000    -0.798000000
H    -5.328000000    -1.186000000    -1.127000000
H    -5.680000000    -1.021000000     2.297000000
C    -3.556000000    -3.207000000     0.951000000
H    -4.046000000    -3.515000000     0.030000000
C    -2.409000000    -3.968000000     1.198000000
C    -1.941000000    -5.101000000     0.329000000
H    -2.793000000    -5.609000000    -0.127000000
H    -1.617000000    -5.873000000     1.030000000
C    -1.055000000    -4.686000000    -0.810000000
C    -1.597000000    -4.368000000    -2.083000000
H    -2.629000000    -4.595000000    -2.339000000
C     0.337000000    -4.528000000    -0.570000000
C     1.170000000    -3.872000000    -1.544000000
H     2.228000000    -3.726000000    -1.341000000
C     0.573000000    -3.529000000    -2.781000000
O     1.383000000    -2.957000000    -3.660000000
C     1.416000000    -1.502000000    -3.524000000
C     2.852000000    -0.932000000    -3.517000000
C     3.045000000     0.453000000    -3.722000000
H     2.255000000     1.173000000    -3.916000000
C     3.939000000    -1.730000000    -3.189000000
H     3.703000000    -2.747000000    -2.887000000
O     0.682000000    -0.952000000    -4.630000000
H     0.996000000    -1.177000000    -2.561000000
C    -0.796000000    -3.730000000    -3.028000000
C    -1.403000000    -3.236000000    -4.361000000
H    -2.310000000    -3.815000000    -4.547000000
H    -0.636000000    -3.428000000    -5.115000000
C    -1.670000000    -1.705000000    -4.303000000
C    -2.960000000    -1.325000000    -3.967000000
H    -3.745000000    -2.074000000    -3.906000000
C    -0.681000000    -0.724000000    -4.615000000
C    -1.029000000     0.606000000    -4.542000000
H    -0.244000000     1.344000000    -4.682000000
C    -2.267000000     1.003000000    -3.983000000
O    -2.433000000     2.306000000    -3.687000000
C    -2.412000000     2.706000000    -2.361000000
C    -1.477000000     3.962000000    -2.286000000
C    -0.551000000     4.241000000    -3.318000000
H    -0.455000000     3.630000000    -4.212000000
C    -1.554000000     4.843000000    -1.183000000
H    -2.161000000     4.520000000    -0.341000000
O    -3.723000000     3.079000000    -1.863000000
H    -1.976000000     1.931000000    -1.714000000
C    -3.253000000     0.012000000    -3.812000000
C    -4.619000000     0.347000000    -3.160000000
H    -5.324000000    -0.467000000    -3.340000000
H    -5.011000000     1.181000000    -3.746000000
C    -4.629000000     0.804000000    -1.696000000
C    -4.204000000     2.031000000    -1.113000000
C    -4.037000000     2.127000000     0.288000000
H    -3.701000000     3.038000000     0.778000000
C    -4.416000000     1.075000000     1.156000000
O    -4.170000000     1.260000000     2.518000000
C    -3.024000000     0.524000000     3.050000000
H    -2.424000000     0.355000000     2.144000000
C    -2.260000000     1.310000000     4.062000000
C    -1.876000000     0.790000000     5.289000000
H    -2.222000000    -0.208000000     5.545000000
C    -1.846000000     2.571000000     3.698000000
H    -1.909000000     2.960000000     2.685000000
C    -1.142000000     3.388000000     4.572000000
O    -0.728000000     4.617000000     4.124000000
C    -0.762000000     2.862000000     5.846000000
H    -0.238000000     3.447000000     6.598000000
C    -1.129000000     1.578000000     6.139000000
O    -0.658000000     1.076000000     7.347000000
C     0.093000000    -0.096000000     7.237000000
C     1.212000000    -0.187000000     6.393000000
H     1.615000000     0.671000000     5.861000000
C    -0.328000000    -1.292000000     7.853000000
H    -1.251000000    -1.222000000     8.424000000
C     0.323000000    -2.516000000     7.612000000
H    -0.039000000    -3.395000000     8.140000000
C     1.485000000    -2.505000000     6.739000000
H     2.062000000    -3.408000000     6.556000000
C     1.966000000    -1.352000000     6.153000000
O     3.082000000    -1.412000000     5.332000000
C     3.056000000    -2.156000000     4.159000000
C     4.295000000    -2.431000000     3.617000000
H     5.176000000    -2.066000000     4.138000000
C     4.385000000    -3.328000000     2.504000000
O     5.655000000    -3.400000000     1.804000000
C     5.680000000    -3.745000000     0.447000000
C     5.967000000    -2.728000000    -0.398000000
H     6.147000000    -1.733000000     0.002000000
C     5.589000000    -5.066000000     0.019000000
H     5.453000000    -5.882000000     0.724000000
C     5.686000000    -5.302000000    -1.296000000
H     5.476000000    -6.340000000    -1.540000000
C     5.962000000    -4.284000000    -2.235000000
H     6.064000000    -4.460000000    -3.303000000
C     6.002000000    -2.990000000    -1.732000000
O     6.321000000    -2.004000000    -2.619000000
C     5.191000000    -1.238000000    -2.974000000
C     5.398000000     0.095000000    -3.325000000
H     6.380000000     0.556000000    -3.255000000
C     4.371000000     0.948000000    -3.669000000
O     4.514000000     2.331000000    -3.779000000
C     3.597000000     3.078000000    -4.468000000
C     2.730000000     3.945000000    -3.882000000
H     2.660000000     4.098000000    -2.808000000
C     3.770000000     3.039000000    -5.857000000
H     4.549000000     2.375000000    -6.224000000
C     2.905000000     3.755000000    -6.659000000
H     2.959000000     3.697000000    -7.743000000
C     2.045000000     4.678000000    -6.093000000
H     1.372000000     5.293000000    -6.686000000
C     2.002000000     4.792000000    -4.675000000
O     1.191000000     5.684000000    -4.135000000
C     0.312000000     5.378000000    -3.105000000
C     0.184000000     6.261000000    -2.039000000
H     0.816000000     7.138000000    -1.926000000
C    -0.752000000     6.015000000    -1.102000000
O    -0.603000000     6.820000000     0.019000000
C    -1.269000000     6.577000000     1.214000000
C    -2.655000000     6.877000000     1.256000000
H    -3.050000000     7.346000000     0.358000000
C    -3.406000000     6.527000000     2.396000000
H    -4.479000000     6.694000000     2.351000000
C    -2.835000000     5.762000000     3.411000000
H    -3.441000000     5.457000000     4.260000000
C    -1.444000000     5.443000000     3.292000000
C    -0.662000000     5.825000000     2.216000000
H     0.417000000     5.696000000     2.238000000
C     3.553000000     0.647000000     2.793000000
H     3.870000000     0.831000000     3.817000000
C     2.161000000     0.662000000     2.611000000
H     1.519000000     0.961000000     3.435000000
C     1.636000000     0.383000000     1.368000000
H     0.608000000     0.280000000     1.159000000
C     2.573000000     0.122000000     0.341000000
H     2.201000000    -0.128000000    -0.649000000
C     3.964000000     0.243000000     0.526000000
H     4.592000000     0.032000000    -0.335000000
C     4.495000000     0.533000000     1.781000000
C     5.955000000     0.868000000     2.030000000
O     6.657000000     0.639000000     1.086000000
O     6.294000000     1.363000000     3.046000000
O     7.923000000     2.690000000    -1.629000000
H     7.854000000     1.755000000    -1.437000000
H     8.702000000     2.976000000    -1.153000000
O     2.312000000     3.558000000     2.403000000
H     2.414000000     2.611000000     2.304000000
H     1.992000000     3.672000000     3.298000000
O     7.618000000    -1.422000000     3.303000000
H     7.389000000    -0.524000000     3.064000000
H     8.046000000    -1.776000000     2.522000000
O    10.634000000    -0.260000000     2.128000000
H    11.544000000    -0.217000000     1.835000000
H    10.574000000    -1.091000000     2.600000000
O     6.664000000    -0.277000000     5.535000000
H     6.276000000     0.473000000     5.084000000
H     7.164000000    -0.731000000     4.857000000
O     2.444000000     3.566000000     5.304000000
H     2.273000000     3.786000000     6.220000000
H     3.302000000     3.143000000     5.315000000
O     3.516000000     4.976000000     0.239000000
H     3.035000000     4.530000000     0.936000000
H     4.228000000     4.376000000     0.017000000
O    10.037000000    -0.685000000     6.138000000
H     9.725000000     0.085000000     5.662000000
H     9.961000000    -0.443000000     7.061000000
O     8.426000000     5.121000000     5.140000000
H     8.891000000     5.815000000     4.673000000
H     8.286000000     4.441000000     4.482000000
O     8.442000000    -3.584000000     4.972000000
H     8.152000000    -2.908000000     4.359000000
H     8.951000000    -3.109000000     5.629000000
O    10.263000000     4.356000000    -0.192000000
H    10.341000000     5.037000000     0.476000000
H     9.891000000     3.606000000     0.272000000
O     7.856000000    -0.166000000    -0.979000000
H     8.188000000    -1.000000000    -0.648000000
H     7.165000000     0.078000000    -0.364000000
O     5.305000000     3.877000000     3.623000000
H     4.355000000     3.912000000     3.738000000
H     5.539000000     2.975000000     3.841000000
O     8.209000000     3.067000000     3.072000000
H     7.470000000     2.458000000     3.079000000
H     8.700000000     2.838000000     2.282000000
O     6.031000000     3.689000000    -0.052000000
H     6.535000000     2.919000000     0.213000000
H     6.201000000     3.776000000    -0.990000000
O     4.630000000     2.304000000     6.594000000
H     4.355000000     2.542000000     7.479000000
H     4.625000000     1.347000000     6.591000000
O     8.974000000    -2.344000000     0.506000000
H     9.767000000    -2.197000000     1.022000000
H     8.977000000    -3.284000000     0.324000000
O     9.192000000     1.860000000     0.794000000
H     9.890000000     1.251000000     1.036000000
H     8.416000000     1.308000000     0.694000000
O     6.998000000     5.554000000     2.528000000
H     6.191000000     5.130000000     2.818000000
H     7.636000000     4.842000000     2.472000000
