215
-1447.16840
C     2.901000000    -3.613000000     2.447000000
H     3.083000000    -4.296000000     1.622000000
C     1.576000000    -3.285000000     2.919000000
C     1.372000000    -2.624000000     4.153000000
H     0.361000000    -2.427000000     4.501000000
C     0.352000000    -3.691000000     2.058000000
O     0.643000000    -4.797000000     1.121000000
H     0.190000000    -2.770000000     1.478000000
O    -0.835000000    -3.979000000     2.749000000
C    -2.042000000    -3.512000000     2.300000000
C    -2.598000000    -2.459000000     3.046000000
H    -1.993000000    -2.032000000     3.843000000
C    -3.783000000    -1.797000000     2.636000000
O    -4.078000000    -0.608000000     3.188000000
C    -4.455000000    -2.229000000     1.442000000
C    -5.451000000    -1.399000000     0.747000000
H    -6.186000000    -2.010000000     0.218000000
C    -4.955000000    -0.267000000    -0.064000000
C    -4.693000000    -0.438000000    -1.442000000
H    -4.845000000    -1.423000000    -1.876000000
H    -6.081000000    -1.024000000     1.556000000
C    -3.971000000    -3.416000000     0.851000000
H    -4.521000000    -3.784000000    -0.011000000
C    -2.768000000    -3.994000000     1.234000000
C    -2.300000000    -5.156000000     0.346000000
H    -3.099000000    -5.667000000    -0.196000000
H    -2.034000000    -5.945000000     1.053000000
C    -1.142000000    -4.717000000    -0.565000000
C    -1.479000000    -4.331000000    -1.882000000
H    -2.543000000    -4.397000000    -2.093000000
C     0.210000000    -4.644000000    -0.183000000
C     1.165000000    -4.230000000    -1.086000000
H     2.182000000    -4.189000000    -0.705000000
C     0.864000000    -3.798000000    -2.350000000
O     1.868000000    -3.138000000    -2.996000000
C     1.771000000    -1.741000000    -3.400000000
C     3.147000000    -1.119000000    -3.411000000
C     3.440000000    -0.055000000    -4.256000000
H     2.637000000     0.127000000    -4.966000000
C     4.071000000    -1.487000000    -2.499000000
H     3.792000000    -2.206000000    -1.732000000
O     1.119000000    -1.637000000    -4.742000000
H     1.211000000    -1.226000000    -2.606000000
C    -0.486000000    -3.889000000    -2.784000000
C    -0.847000000    -3.582000000    -4.192000000
H    -1.734000000    -4.114000000    -4.544000000
H    -0.100000000    -3.892000000    -4.925000000
C    -1.169000000    -2.061000000    -4.391000000
C    -2.496000000    -1.557000000    -4.183000000
H    -3.243000000    -2.296000000    -3.908000000
C    -0.159000000    -1.182000000    -4.731000000
C    -0.415000000     0.165000000    -4.659000000
H     0.446000000     0.828000000    -4.644000000
C    -1.696000000     0.689000000    -4.422000000
O    -1.735000000     2.023000000    -4.107000000
C    -1.808000000     2.320000000    -2.640000000
C    -0.797000000     3.388000000    -2.306000000
C     0.275000000     3.763000000    -3.234000000
H     0.219000000     3.345000000    -4.236000000
C    -0.775000000     4.031000000    -1.040000000
H    -1.548000000     3.709000000    -0.348000000
O    -3.097000000     2.835000000    -2.179000000
H    -1.553000000     1.358000000    -2.171000000
C    -2.717000000    -0.237000000    -4.101000000
C    -4.044000000     0.353000000    -3.779000000
H    -4.736000000    -0.204000000    -4.414000000
H    -4.066000000     1.370000000    -4.176000000
C    -4.303000000     0.605000000    -2.265000000
C    -3.894000000     1.852000000    -1.644000000
C    -4.165000000     1.997000000    -0.235000000
H    -3.876000000     2.903000000     0.291000000
C    -4.667000000     0.991000000     0.529000000
O    -4.661000000     1.210000000     1.902000000
C    -3.629000000     0.666000000     2.631000000
H    -2.742000000     0.531000000     1.993000000
C    -3.282000000     1.594000000     3.827000000
C    -2.366000000     1.189000000     4.761000000
H    -2.175000000     0.123000000     4.848000000
C    -3.433000000     3.001000000     3.750000000
H    -4.092000000     3.493000000     3.039000000
C    -2.693000000     3.942000000     4.537000000
O    -2.729000000     5.290000000     4.268000000
C    -1.860000000     3.461000000     5.565000000
H    -1.363000000     4.234000000     6.144000000
C    -1.707000000     2.050000000     5.662000000
O    -0.989000000     1.548000000     6.765000000
C    -0.708000000     0.286000000     6.868000000
C     0.556000000    -0.094000000     6.384000000
H     1.167000000     0.684000000     5.933000000
C    -1.595000000    -0.600000000     7.523000000
H    -2.530000000    -0.228000000     7.932000000
C    -1.050000000    -1.901000000     7.824000000
H    -1.610000000    -2.530000000     8.510000000
C     0.145000000    -2.283000000     7.280000000
H     0.442000000    -3.323000000     7.382000000
C     0.976000000    -1.344000000     6.640000000
O     2.277000000    -1.730000000     6.241000000
C     2.448000000    -2.284000000     4.936000000
C     3.781000000    -2.576000000     4.425000000
H     4.627000000    -2.304000000     5.051000000
C     3.952000000    -3.141000000     3.140000000
O     5.188000000    -3.355000000     2.673000000
C     5.645000000    -3.411000000     1.375000000
C     5.498000000    -2.325000000     0.505000000
H     4.938000000    -1.410000000     0.676000000
C     6.358000000    -4.534000000     0.997000000
H     6.449000000    -5.502000000     1.481000000
C     7.054000000    -4.506000000    -0.202000000
H     7.612000000    -5.417000000    -0.404000000
C     7.070000000    -3.410000000    -1.007000000
H     7.693000000    -3.350000000    -1.896000000
C     6.279000000    -2.278000000    -0.657000000
O     6.258000000    -1.193000000    -1.484000000
C     5.328000000    -0.900000000    -2.459000000
C     5.586000000     0.192000000    -3.253000000
H     6.602000000     0.576000000    -3.204000000
C     4.640000000     0.675000000    -4.175000000
O     4.914000000     1.698000000    -5.070000000
C     4.072000000     2.641000000    -5.468000000
C     3.335000000     3.349000000    -4.461000000
H     3.415000000     3.044000000    -3.421000000
C     4.066000000     3.101000000    -6.780000000
H     4.708000000     2.697000000    -7.558000000
C     3.243000000     4.173000000    -7.094000000
H     3.355000000     4.585000000    -8.094000000
C     2.506000000     4.856000000    -6.088000000
H     1.918000000     5.743000000    -6.309000000
C     2.635000000     4.459000000    -4.802000000
O     2.103000000     5.199000000    -3.837000000
C     1.290000000     4.714000000    -2.855000000
C     1.337000000     5.251000000    -1.578000000
H     2.127000000     5.952000000    -1.319000000
C     0.245000000     5.010000000    -0.760000000
O     0.240000000     5.487000000     0.482000000
C    -0.926000000     5.881000000     1.097000000
C    -1.727000000     6.942000000     0.595000000
H    -1.428000000     7.598000000    -0.218000000
C    -2.849000000     7.316000000     1.282000000
H    -3.401000000     8.193000000     0.952000000
C    -3.197000000     6.701000000     2.450000000
H    -4.092000000     6.945000000     3.017000000
C    -2.320000000     5.769000000     3.022000000
C    -1.241000000     5.290000000     2.311000000
H    -0.663000000     4.479000000     2.748000000
C     2.387000000     0.822000000     1.582000000
H     2.965000000     0.783000000     2.501000000
C     1.175000000     0.147000000     1.479000000
H     0.863000000    -0.547000000     2.255000000
C     0.569000000     0.040000000     0.251000000
H    -0.377000000    -0.548000000     0.138000000
C     1.065000000     0.785000000    -0.864000000
H     0.591000000     0.705000000    -1.838000000
C     2.240000000     1.483000000    -0.728000000
H     2.670000000     1.994000000    -1.586000000
C     2.919000000     1.493000000     0.470000000
C     4.202000000     2.207000000     0.494000000
O     4.813000000     2.348000000    -0.562000000
O     4.761000000     2.474000000     1.554000000
O     2.030000000     3.585000000     2.741000000
H     2.828000000     3.093000000     2.548000000
H     1.530000000     3.559000000     1.925000000
O     2.709000000     3.975000000     5.385000000
H     3.587000000     3.756000000     5.073000000
H     2.148000000     3.869000000     4.617000000
O     4.775000000     3.034000000     4.185000000
H     4.791000000     2.849000000     3.246000000
H     5.099000000     2.231000000     4.593000000
O     6.034000000     0.651000000     2.575000000
H     5.579000000     1.364000000     2.126000000
H     5.786000000     0.749000000     3.494000000
O     7.019000000     4.062000000     1.154000000
H     6.369000000     3.474000000     0.768000000
H     7.840000000     3.571000000     1.114000000
O     2.168000000     6.692000000     3.019000000
H     2.763000000     7.245000000     3.526000000
H     2.738000000     6.041000000     2.609000000
O     5.135000000     8.060000000     1.922000000
H     5.155000000     7.454000000     2.663000000
H     4.359000000     8.599000000     2.074000000
O     7.644000000     3.395000000    -4.008000000
H     6.775000000     3.249000000    -3.633000000
H     7.530000000     3.236000000    -4.945000000
O     4.008000000     7.776000000    -1.813000000
H     3.421000000     8.335000000    -1.305000000
H     4.343000000     7.142000000    -1.179000000
O     7.380000000     1.334000000    -0.898000000
H     7.243000000     0.400000000    -1.055000000
H     6.516000000     1.665000000    -0.654000000
O     9.672000000     3.021000000     1.086000000
H    10.428000000     3.533000000     1.375000000
H     9.703000000     3.065000000     0.131000000
O     9.409000000     4.435000000     3.933000000
H     8.680000000     4.019000000     3.472000000
H    10.007000000     4.709000000     3.237000000
O     5.584000000     6.084000000    -0.050000000
H     5.343000000     6.733000000     0.610000000
H     6.025000000     5.392000000     0.443000000
O     5.403000000     4.177000000    -2.239000000
H     5.242000000     3.416000000    -1.681000000
H     5.402000000     4.920000000    -1.636000000
O     5.611000000     5.723000000    -4.550000000
H     5.756000000     4.969000000    -3.979000000
H     4.689000000     5.947000000    -4.424000000
O     9.324000000     3.014000000    -1.767000000
H     8.665000000     2.333000000    -1.629000000
H     9.144000000     3.345000000    -2.647000000
O     4.718000000     0.456000000     5.265000000
H     5.545000000    -0.010000000     5.389000000
H     4.054000000    -0.137000000     5.615000000
O     8.692000000     0.889000000     2.406000000
H     8.884000000     1.549000000     1.740000000
H     7.748000000     0.744000000     2.335000000
O     5.775000000     5.506000000     3.079000000
H     6.250000000     4.887000000     2.524000000
H     5.503000000     4.988000000     3.836000000
