215
-1456.82223
C     1.808000000    -3.359000000     3.232000000
H     2.209000000    -3.748000000     2.300000000
C     0.491000000    -3.096000000     3.398000000
C     0.056000000    -2.415000000     4.576000000
H    -0.973000000    -2.064000000     4.618000000
C    -0.499000000    -3.318000000     2.233000000
O     0.056000000    -4.380000000     1.387000000
H    -0.505000000    -2.383000000     1.655000000
O    -1.881000000    -3.732000000     2.716000000
C    -2.956000000    -3.221000000     1.959000000
C    -3.461000000    -2.020000000     2.374000000
H    -3.090000000    -1.605000000     3.308000000
C    -4.353000000    -1.372000000     1.558000000
O    -4.870000000    -0.188000000     1.952000000
C    -4.741000000    -1.819000000     0.282000000
C    -5.525000000    -0.866000000    -0.576000000
H    -5.971000000    -1.504000000    -1.341000000
C    -4.685000000     0.159000000    -1.274000000
C    -4.217000000    -0.132000000    -2.584000000
H    -4.592000000    -0.952000000    -3.191000000
H    -6.338000000    -0.320000000    -0.092000000
C    -4.218000000    -2.995000000    -0.189000000
H    -4.456000000    -3.353000000    -1.187000000
C    -3.300000000    -3.728000000     0.669000000
C    -2.515000000    -4.944000000     0.076000000
H    -3.312000000    -5.492000000    -0.431000000
H    -2.127000000    -5.697000000     0.765000000
C    -1.256000000    -4.446000000    -0.669000000
C    -1.222000000    -4.343000000    -2.049000000
H    -2.118000000    -4.383000000    -2.662000000
C    -0.059000000    -4.293000000     0.009000000
C     1.153000000    -4.051000000    -0.603000000
H     2.082000000    -4.007000000    -0.042000000
C     1.131000000    -3.811000000    -1.932000000
O     2.274000000    -3.514000000    -2.617000000
C     2.590000000    -2.141000000    -2.896000000
C     3.984000000    -1.699000000    -2.535000000
C     4.498000000    -0.500000000    -2.958000000
H     3.807000000     0.033000000    -3.606000000
C     4.723000000    -2.266000000    -1.495000000
H     4.334000000    -3.173000000    -1.041000000
O     2.203000000    -1.766000000    -4.272000000
H     2.059000000    -1.471000000    -2.203000000
C    -0.065000000    -3.951000000    -2.677000000
C    -0.001000000    -3.717000000    -4.185000000
H    -0.812000000    -4.276000000    -4.655000000
H     0.897000000    -4.209000000    -4.566000000
C    -0.171000000    -2.194000000    -4.361000000
C    -1.428000000    -1.614000000    -4.480000000
H    -2.290000000    -2.275000000    -4.493000000
C     0.927000000    -1.321000000    -4.472000000
C     0.764000000     0.055000000    -4.687000000
H     1.629000000     0.708000000    -4.765000000
C    -0.485000000     0.566000000    -4.585000000
O    -0.584000000     1.966000000    -4.474000000
C    -1.050000000     2.685000000    -3.278000000
C    -0.161000000     3.912000000    -3.101000000
C     1.198000000     3.895000000    -3.473000000
H     1.616000000     3.059000000    -4.028000000
C    -0.605000000     4.855000000    -2.207000000
H    -1.613000000     4.752000000    -1.811000000
O    -2.501000000     2.923000000    -3.378000000
H    -0.809000000     2.046000000    -2.416000000
C    -1.638000000    -0.216000000    -4.518000000
C    -2.994000000     0.348000000    -4.623000000
H    -3.684000000    -0.344000000    -5.110000000
H    -2.915000000     1.227000000    -5.267000000
C    -3.476000000     0.800000000    -3.311000000
C    -3.207000000     2.030000000    -2.757000000
C    -3.624000000     2.308000000    -1.451000000
H    -3.323000000     3.196000000    -0.902000000
C    -4.383000000     1.374000000    -0.731000000
O    -4.720000000     1.631000000     0.603000000
C    -4.000000000     0.860000000     1.517000000
H    -3.094000000     0.431000000     1.065000000
C    -3.530000000     1.764000000     2.612000000
C    -3.659000000     1.499000000     3.995000000
H    -4.148000000     0.589000000     4.333000000
C    -2.836000000     2.897000000     2.247000000
H    -2.642000000     3.103000000     1.198000000
C    -2.132000000     3.652000000     3.280000000
O    -1.346000000     4.686000000     2.919000000
C    -2.158000000     3.258000000     4.555000000
H    -1.589000000     3.766000000     5.330000000
C    -2.989000000     2.231000000     4.931000000
O    -3.035000000     1.794000000     6.236000000
C    -2.373000000     0.727000000     6.731000000
C    -1.147000000     0.218000000     6.334000000
H    -0.614000000     0.647000000     5.489000000
C    -3.028000000     0.183000000     7.849000000
H    -4.055000000     0.506000000     7.995000000
C    -2.436000000    -0.839000000     8.574000000
H    -2.976000000    -1.272000000     9.412000000
C    -1.182000000    -1.287000000     8.235000000
H    -0.626000000    -2.043000000     8.783000000
C    -0.584000000    -0.812000000     7.092000000
O     0.610000000    -1.402000000     6.699000000
C     0.941000000    -2.107000000     5.566000000
C     2.246000000    -2.476000000     5.430000000
H     2.990000000    -2.175000000     6.163000000
C     2.717000000    -3.026000000     4.265000000
O     4.105000000    -3.206000000     4.124000000
C     4.714000000    -3.588000000     2.862000000
C     5.292000000    -2.696000000     1.951000000
H     5.089000000    -1.629000000     1.978000000
C     4.763000000    -4.991000000     2.718000000
H     4.161000000    -5.648000000     3.341000000
C     5.593000000    -5.520000000     1.694000000
H     5.643000000    -6.595000000     1.540000000
C     6.191000000    -4.588000000     0.821000000
H     6.533000000    -4.988000000    -0.130000000
C     6.030000000    -3.177000000     0.928000000
O     6.557000000    -2.321000000     0.027000000
C     5.911000000    -1.775000000    -1.032000000
C     6.558000000    -0.741000000    -1.711000000
H     7.460000000    -0.313000000    -1.281000000
C     5.847000000    -0.108000000    -2.746000000
O     6.276000000     1.065000000    -3.293000000
C     5.574000000     2.034000000    -4.007000000
C     4.926000000     3.033000000    -3.335000000
H     5.168000000     3.197000000    -2.288000000
C     5.192000000     1.700000000    -5.289000000
H     5.622000000     0.801000000    -5.723000000
C     4.281000000     2.516000000    -5.995000000
H     4.079000000     2.303000000    -7.042000000
C     3.737000000     3.654000000    -5.392000000
H     3.088000000     4.335000000    -5.936000000
C     4.053000000     3.872000000    -4.031000000
O     3.406000000     4.877000000    -3.310000000
C     2.045000000     4.953000000    -3.138000000
C     1.547000000     5.958000000    -2.286000000
H     2.256000000     6.750000000    -2.059000000
C     0.254000000     5.924000000    -1.847000000
O    -0.141000000     7.000000000    -1.075000000
C    -0.986000000     6.901000000    -0.010000000
C    -2.296000000     7.397000000    -0.065000000
H    -2.663000000     7.956000000    -0.922000000
C    -3.176000000     7.206000000     0.973000000
H    -4.156000000     7.668000000     1.064000000
C    -2.859000000     6.343000000     1.963000000
H    -3.641000000     6.112000000     2.681000000
C    -1.628000000     5.676000000     1.980000000
C    -0.718000000     5.972000000     0.991000000
H     0.237000000     5.455000000     0.944000000
C     0.367000000     1.108000000     2.675000000
H     0.157000000     1.066000000     3.741000000
C    -0.282000000     0.251000000     1.769000000
H    -1.016000000    -0.464000000     2.133000000
C    -0.042000000     0.314000000     0.426000000
H    -0.584000000    -0.388000000    -0.168000000
C     0.786000000     1.326000000    -0.073000000
H     0.984000000     1.474000000    -1.131000000
C     1.449000000     2.179000000     0.772000000
H     2.263000000     2.823000000     0.448000000
C     1.245000000     2.058000000     2.198000000
C     1.921000000     3.013000000     3.180000000
O     2.548000000     4.016000000     2.769000000
O     2.043000000     2.766000000     4.374000000
O     1.665000000     6.059000000     4.032000000
H     2.496000000     6.278000000     4.453000000
H     1.878000000     5.334000000     3.444000000
O     5.149000000     5.940000000    -1.461000000
H     4.608000000     5.563000000    -0.767000000
H     4.522000000     6.235000000    -2.121000000
O    -0.587000000     5.955000000     5.956000000
H    -0.207000000     5.291000000     6.533000000
H    -0.006000000     5.972000000     5.196000000
O     6.007000000     5.452000000     3.403000000
H     6.142000000     4.653000000     2.893000000
H     5.552000000     6.044000000     2.804000000
O     1.041000000     3.805000000     6.637000000
H     1.701000000     4.386000000     7.014000000
H     1.509000000     3.319000000     5.958000000
O     3.050000000     0.415000000     5.087000000
H     2.342000000    -0.218000000     4.967000000
H     2.632000000     1.267000000     4.968000000
O     1.589000000     8.600000000     2.943000000
H     1.150000000     9.125000000     3.613000000
H     1.809000000     7.781000000     3.388000000
O     3.260000000     5.615000000     7.480000000
H     3.274000000     6.525000000     7.184000000
H     3.817000000     5.152000000     6.854000000
O     5.722000000     0.604000000     4.822000000
H     5.833000000     1.230000000     4.107000000
H     4.773000000     0.518000000     4.920000000
O    -2.737000000     7.288000000     5.244000000
H    -1.977000000     6.707000000     5.270000000
H    -2.772000000     7.674000000     6.119000000
O     3.987000000     5.490000000     1.061000000
H     3.569000000     6.287000000     0.735000000
H     3.341000000     5.105000000     1.652000000
O     4.351000000     4.056000000     5.406000000
H     3.482000000     3.812000000     5.090000000
H     4.776000000     4.463000000     4.651000000
O     4.151000000     1.548000000     9.210000000
H     4.702000000     2.209000000     9.629000000
H     3.815000000     1.980000000     8.424000000
O     0.984000000     6.082000000     8.904000000
H     1.704000000     5.816000000     8.332000000
H     0.935000000     5.390000000     9.564000000
O     3.646000000     7.869000000     5.184000000
H     4.482000000     7.917000000     4.720000000
H     3.470000000     8.770000000     5.455000000
O     6.499000000     4.209000000     1.016000000
H     6.930000000     4.525000000     0.222000000
H     5.604000000     4.542000000     0.952000000
O     2.693000000     8.006000000     0.698000000
H     2.317000000     8.297000000     1.529000000
H     2.317000000     8.597000000     0.045000000
O     6.289000000     2.880000000     6.813000000
H     5.638000000     3.394000000     6.334000000
H     6.401000000     2.087000000     6.289000000
O     7.225000000     2.329000000     3.028000000
H     7.092000000     2.780000000     2.194000000
H     7.813000000     2.902000000     3.519000000
