215
-1472.38411
C     2.431000000    -2.924000000     3.691000000
H     2.656000000    -3.634000000     2.900000000
C     1.147000000    -2.471000000     3.950000000
C     0.936000000    -1.582000000     5.022000000
H    -0.055000000    -1.383000000     5.423000000
C    -0.014000000    -2.948000000     3.087000000
O     0.273000000    -4.285000000     2.563000000
H    -0.133000000    -2.249000000     2.246000000
O    -1.298000000    -3.012000000     3.793000000
C    -2.397000000    -2.335000000     3.263000000
C    -2.750000000    -0.978000000     3.521000000
H    -2.196000000    -0.427000000     4.277000000
C    -3.719000000    -0.322000000     2.700000000
O    -3.874000000     1.049000000     2.966000000
C    -4.264000000    -1.078000000     1.658000000
C    -5.451000000    -0.485000000     0.895000000
H    -6.171000000    -1.199000000     0.489000000
C    -5.000000000     0.353000000    -0.269000000
C    -4.861000000    -0.295000000    -1.524000000
H    -5.286000000    -1.291000000    -1.623000000
H    -6.006000000     0.096000000     1.633000000
C    -4.036000000    -2.418000000     1.517000000
H    -4.588000000    -3.012000000     0.793000000
C    -3.045000000    -3.058000000     2.273000000
C    -2.719000000    -4.477000000     1.959000000
H    -3.610000000    -4.869000000     1.464000000
H    -2.264000000    -5.012000000     2.795000000
C    -1.579000000    -4.568000000     0.937000000
C    -1.780000000    -4.695000000    -0.417000000
H    -2.805000000    -4.734000000    -0.777000000
C    -0.206000000    -4.507000000     1.270000000
C     0.822000000    -4.617000000     0.362000000
H     1.872000000    -4.587000000     0.643000000
C     0.536000000    -4.703000000    -1.004000000
O     1.548000000    -4.494000000    -1.826000000
C     1.623000000    -3.168000000    -2.473000000
C     3.031000000    -2.627000000    -2.502000000
C     3.433000000    -1.797000000    -3.601000000
H     2.715000000    -1.701000000    -4.412000000
C     3.975000000    -2.814000000    -1.509000000
H     3.701000000    -3.488000000    -0.702000000
O     0.997000000    -3.180000000    -3.741000000
H     1.033000000    -2.407000000    -1.941000000
C    -0.772000000    -4.761000000    -1.408000000
C    -1.296000000    -4.697000000    -2.877000000
H    -2.299000000    -5.127000000    -2.888000000
H    -0.651000000    -5.305000000    -3.516000000
C    -1.374000000    -3.302000000    -3.468000000
C    -2.560000000    -2.572000000    -3.493000000
H    -3.467000000    -3.098000000    -3.205000000
C    -0.208000000    -2.632000000    -3.845000000
C    -0.274000000    -1.282000000    -4.248000000
H     0.605000000    -0.844000000    -4.713000000
C    -1.503000000    -0.562000000    -4.235000000
O    -1.456000000     0.786000000    -4.543000000
C    -1.521000000     1.715000000    -3.419000000
C    -0.430000000     2.762000000    -3.449000000
C     0.555000000     2.607000000    -4.400000000
H     0.567000000     1.761000000    -5.082000000
C    -0.481000000     3.897000000    -2.583000000
H    -1.383000000     3.994000000    -1.985000000
O    -2.850000000     2.273000000    -3.353000000
H    -1.512000000     1.175000000    -2.460000000
C    -2.651000000    -1.217000000    -3.852000000
C    -3.951000000    -0.445000000    -3.880000000
H    -4.783000000    -1.140000000    -4.013000000
H    -3.888000000     0.306000000    -4.670000000
C    -4.155000000     0.370000000    -2.582000000
C    -3.748000000     1.728000000    -2.409000000
C    -3.930000000     2.381000000    -1.236000000
H    -3.546000000     3.388000000    -1.093000000
C    -4.478000000     1.709000000    -0.136000000
O    -4.481000000     2.361000000     1.096000000
C    -3.405000000     1.922000000     1.969000000
H    -2.677000000     1.376000000     1.351000000
C    -2.684000000     3.037000000     2.674000000
C    -1.914000000     2.753000000     3.778000000
H    -1.821000000     1.758000000     4.207000000
C    -2.673000000     4.287000000     2.116000000
H    -3.314000000     4.495000000     1.263000000
C    -1.937000000     5.293000000     2.750000000
O    -1.910000000     6.587000000     2.237000000
C    -1.187000000     4.981000000     3.840000000
H    -0.735000000     5.830000000     4.347000000
C    -1.214000000     3.757000000     4.445000000
O    -0.488000000     3.640000000     5.577000000
C    -0.388000000     2.476000000     6.322000000
C     0.726000000     1.661000000     6.129000000
H     1.401000000     1.868000000     5.303000000
C    -1.447000000     2.168000000     7.187000000
H    -2.332000000     2.794000000     7.109000000
C    -1.284000000     1.076000000     8.034000000
H    -2.012000000     0.828000000     8.802000000
C    -0.106000000     0.290000000     7.981000000
H    -0.011000000    -0.577000000     8.630000000
C     0.830000000     0.577000000     6.974000000
O     1.912000000    -0.228000000     6.826000000
C     2.054000000    -1.043000000     5.645000000
C     3.375000000    -1.325000000     5.242000000
H     4.210000000    -0.958000000     5.834000000
C     3.485000000    -2.286000000     4.290000000
O     4.820000000    -2.610000000     3.962000000
C     5.158000000    -3.327000000     2.824000000
C     5.581000000    -2.630000000     1.699000000
H     5.639000000    -1.545000000     1.709000000
C     5.096000000    -4.766000000     2.897000000
H     4.932000000    -5.363000000     3.790000000
C     5.243000000    -5.451000000     1.708000000
H     5.024000000    -6.515000000     1.704000000
C     5.543000000    -4.718000000     0.545000000
H     5.639000000    -5.222000000    -0.414000000
C     5.746000000    -3.295000000     0.555000000
O     6.136000000    -2.590000000    -0.600000000
C     5.249000000    -2.361000000    -1.619000000
C     5.650000000    -1.530000000    -2.737000000
H     6.630000000    -1.061000000    -2.789000000
C     4.707000000    -1.254000000    -3.691000000
O     5.082000000    -0.617000000    -4.836000000
C     4.320000000     0.287000000    -5.637000000
C     3.714000000     1.454000000    -4.989000000
H     3.818000000     1.616000000    -3.919000000
C     4.307000000     0.101000000    -7.019000000
H     4.919000000    -0.696000000    -7.433000000
C     3.810000000     1.102000000    -7.864000000
H     4.045000000     0.961000000    -8.916000000
C     3.243000000     2.231000000    -7.302000000
H     2.780000000     2.940000000    -7.984000000
C     3.122000000     2.380000000    -5.902000000
O     2.604000000     3.498000000    -5.384000000
C     1.646000000     3.491000000    -4.407000000
C     1.621000000     4.556000000    -3.528000000
H     2.463000000     5.236000000    -3.631000000
C     0.602000000     4.757000000    -2.661000000
O     0.695000000     5.884000000    -1.771000000
C    -0.326000000     6.522000000    -1.126000000
C    -1.150000000     7.532000000    -1.759000000
H    -1.046000000     7.687000000    -2.830000000
C    -2.051000000     8.277000000    -0.982000000
H    -2.666000000     9.063000000    -1.413000000
C    -2.337000000     7.896000000     0.335000000
H    -2.992000000     8.531000000     0.927000000
C    -1.674000000     6.829000000     0.891000000
C    -0.579000000     6.233000000     0.247000000
H     0.066000000     5.487000000     0.706000000
C     0.819000000     2.065000000     1.309000000
H     0.892000000     2.613000000     2.245000000
C     0.005000000     0.968000000     1.147000000
H    -0.600000000     0.708000000     2.012000000
C     0.056000000     0.238000000    -0.039000000
H    -0.588000000    -0.669000000    -0.210000000
C     0.865000000     0.720000000    -1.078000000
H     1.001000000     0.118000000    -1.973000000
C     1.681000000     1.804000000    -1.016000000
H     2.189000000     2.247000000    -1.869000000
C     1.698000000     2.468000000     0.218000000
C     2.609000000     3.658000000     0.353000000
O     3.429000000     3.897000000    -0.563000000
O     2.635000000     4.284000000     1.388000000
O     6.570000000     7.836000000    -2.378000000
H     6.681000000     8.014000000    -3.312000000
H     5.648000000     7.597000000    -2.287000000
O     2.938000000     8.273000000    -1.203000000
H     3.373000000     9.118000000    -1.092000000
H     2.158000000     8.471000000    -1.720000000
O     3.669000000     9.300000000     2.229000000
H     3.563000000     9.059000000     3.149000000
H     3.390000000     8.523000000     1.744000000
O     2.449000000     7.029000000     1.319000000
H     2.587000000     7.298000000     0.411000000
H     2.652000000     6.094000000     1.326000000
O     4.515000000     7.672000000     4.532000000
H     4.339000000     7.721000000     5.472000000
H     4.526000000     6.735000000     4.339000000
O     7.140000000     7.391000000     1.648000000
H     7.300000000     7.301000000     2.588000000
H     6.938000000     6.503000000     1.354000000
O     1.396000000     7.095000000     4.345000000
H     1.455000000     6.811000000     3.433000000
H     2.150000000     7.672000000     4.465000000
O     0.551000000     9.288000000     0.489000000
H     0.969000000     8.429000000     0.550000000
H     0.318000000     9.506000000     1.391000000
O     3.348000000     3.889000000     3.861000000
H     2.961000000     4.112000000     3.015000000
H     3.681000000     2.999000000     3.746000000
O     5.530000000     3.136000000    -2.254000000
H     5.891000000     4.003000000    -2.439000000
H     4.807000000     3.302000000    -1.648000000
O     4.203000000     6.026000000    -1.967000000
H     3.740000000     5.289000000    -1.568000000
H     3.681000000     6.793000000    -1.730000000
O     4.210000000     0.831000000     2.900000000
H     3.729000000     0.018000000     2.745000000
H     4.646000000     1.013000000     2.068000000
O     2.083000000     4.973000000     5.920000000
H     2.274000000     4.766000000     5.005000000
H     1.753000000     5.871000000     5.898000000
O     2.848000000    -1.030000000     0.621000000
H     3.574000000    -1.072000000    -0.001000000
H     2.375000000    -0.232000000     0.383000000
O     5.018000000     1.288000000     0.334000000
H     4.705000000     2.157000000     0.081000000
H     5.835000000     1.177000000    -0.153000000
O     5.177000000     5.097000000    -4.851000000
H     4.314000000     5.149000000    -4.441000000
H     5.224000000     5.874000000    -5.409000000
O     5.558000000     4.767000000     0.848000000
H     4.921000000     4.684000000     0.139000000
H     5.214000000     4.208000000     1.546000000
O     5.342000000     4.584000000     5.770000000
H     5.100000000     4.138000000     6.582000000
H     4.553000000     4.542000000     5.229000000
O     5.810000000     1.562000000     4.973000000
H     5.278000000     2.181000000     5.473000000
H     5.173000000     0.991000000     4.544000000
