215
-1459.59819
C     2.275000000    -2.951000000     3.925000000
H     2.419000000    -3.696000000     3.147000000
C     0.963000000    -2.337000000     4.126000000
C     0.890000000    -1.181000000     4.885000000
H    -0.046000000    -0.628000000     4.918000000
C    -0.305000000    -2.781000000     3.400000000
O    -0.230000000    -4.143000000     2.924000000
H    -0.346000000    -2.079000000     2.554000000
O    -1.525000000    -2.643000000     4.188000000
C    -2.617000000    -2.217000000     3.431000000
C    -2.905000000    -0.827000000     3.597000000
H    -2.253000000    -0.250000000     4.249000000
C    -3.930000000    -0.192000000     2.829000000
O    -3.964000000     1.216000000     2.971000000
C    -4.563000000    -0.868000000     1.854000000
C    -5.544000000    -0.192000000     0.953000000
H    -6.294000000    -0.915000000     0.626000000
C    -4.875000000     0.511000000    -0.217000000
C    -4.772000000    -0.136000000    -1.456000000
H    -5.238000000    -1.107000000    -1.610000000
H    -6.100000000     0.465000000     1.625000000
C    -4.303000000    -2.245000000     1.684000000
H    -4.841000000    -2.800000000     0.920000000
C    -3.331000000    -2.922000000     2.485000000
C    -2.999000000    -4.359000000     2.181000000
H    -3.888000000    -4.784000000     1.711000000
H    -2.838000000    -4.945000000     3.088000000
C    -1.872000000    -4.397000000     1.132000000
C    -2.195000000    -4.596000000    -0.222000000
H    -3.238000000    -4.715000000    -0.504000000
C    -0.519000000    -4.380000000     1.582000000
C     0.449000000    -4.404000000     0.582000000
H     1.469000000    -4.284000000     0.939000000
C     0.144000000    -4.537000000    -0.747000000
O     1.211000000    -4.448000000    -1.625000000
C     1.375000000    -3.240000000    -2.285000000
C     2.817000000    -2.744000000    -2.455000000
C     3.308000000    -2.118000000    -3.619000000
H     2.693000000    -2.082000000    -4.514000000
C     3.623000000    -2.888000000    -1.302000000
H     3.168000000    -3.489000000    -0.519000000
O     0.796000000    -3.306000000    -3.642000000
H     0.808000000    -2.477000000    -1.732000000
C    -1.162000000    -4.653000000    -1.136000000
C    -1.480000000    -4.642000000    -2.667000000
H    -2.432000000    -5.153000000    -2.821000000
H    -0.691000000    -5.192000000    -3.185000000
C    -1.496000000    -3.247000000    -3.187000000
C    -2.633000000    -2.440000000    -3.126000000
H    -3.499000000    -2.791000000    -2.571000000
C    -0.424000000    -2.702000000    -3.843000000
C    -0.416000000    -1.552000000    -4.550000000
H     0.501000000    -1.243000000    -5.046000000
C    -1.521000000    -0.710000000    -4.502000000
O    -1.432000000     0.678000000    -4.842000000
C    -1.292000000     1.489000000    -3.623000000
C    -0.237000000     2.540000000    -3.790000000
C     0.952000000     2.287000000    -4.526000000
H     0.988000000     1.482000000    -5.257000000
C    -0.140000000     3.612000000    -2.859000000
H    -0.866000000     3.691000000    -2.053000000
O    -2.501000000     2.198000000    -3.290000000
H    -0.978000000     0.934000000    -2.727000000
C    -2.653000000    -1.206000000    -3.762000000
C    -3.934000000    -0.478000000    -3.831000000
H    -4.752000000    -1.201000000    -3.864000000
H    -4.040000000     0.063000000    -4.775000000
C    -4.092000000     0.398000000    -2.571000000
C    -3.487000000     1.672000000    -2.393000000
C    -3.672000000     2.363000000    -1.182000000
H    -3.249000000     3.339000000    -0.958000000
C    -4.331000000     1.786000000    -0.143000000
O    -4.337000000     2.512000000     1.037000000
C    -3.372000000     2.109000000     1.969000000
H    -2.625000000     1.600000000     1.343000000
C    -2.796000000     3.434000000     2.538000000
C    -2.186000000     3.353000000     3.816000000
H    -2.216000000     2.445000000     4.413000000
C    -2.731000000     4.658000000     1.827000000
H    -3.060000000     4.715000000     0.792000000
C    -2.027000000     5.735000000     2.381000000
O    -1.861000000     6.898000000     1.650000000
C    -1.301000000     5.552000000     3.579000000
H    -0.616000000     6.324000000     3.920000000
C    -1.430000000     4.417000000     4.364000000
O    -0.513000000     4.108000000     5.351000000
C    -0.483000000     2.956000000     6.103000000
C     0.580000000     2.091000000     5.818000000
H     1.216000000     2.203000000     4.944000000
C    -1.301000000     2.687000000     7.221000000
H    -2.164000000     3.307000000     7.454000000
C    -1.005000000     1.589000000     8.029000000
H    -1.606000000     1.499000000     8.930000000
C     0.121000000     0.803000000     7.798000000
H     0.380000000     0.040000000     8.527000000
C     0.894000000     1.129000000     6.712000000
O     2.028000000     0.343000000     6.416000000
C     2.039000000    -0.766000000     5.629000000
C     3.278000000    -1.387000000     5.437000000
H     4.181000000    -0.899000000     5.794000000
C     3.399000000    -2.444000000     4.577000000
O     4.684000000    -2.867000000     4.303000000
C     4.930000000    -3.522000000     3.132000000
C     5.290000000    -2.702000000     2.037000000
H     5.195000000    -1.628000000     2.174000000
C     4.939000000    -4.903000000     3.023000000
H     4.797000000    -5.492000000     3.926000000
C     5.303000000    -5.447000000     1.773000000
H     5.165000000    -6.523000000     1.698000000
C     5.599000000    -4.632000000     0.716000000
H     5.971000000    -5.114000000    -0.184000000
C     5.581000000    -3.250000000     0.817000000
O     5.833000000    -2.450000000    -0.290000000
C     4.968000000    -2.439000000    -1.381000000
C     5.362000000    -1.771000000    -2.534000000
H     6.385000000    -1.411000000    -2.606000000
C     4.592000000    -1.709000000    -3.696000000
O     5.193000000    -1.370000000    -4.878000000
C     4.676000000    -0.328000000    -5.637000000
C     4.091000000     0.807000000    -5.059000000
H     4.162000000     0.931000000    -3.982000000
C     4.730000000    -0.469000000    -7.010000000
H     5.212000000    -1.333000000    -7.461000000
C     4.156000000     0.492000000    -7.801000000
H     4.293000000     0.504000000    -8.879000000
C     3.498000000     1.580000000    -7.248000000
H     3.151000000     2.360000000    -7.921000000
C     3.486000000     1.781000000    -5.873000000
O     3.080000000     2.921000000    -5.282000000
C     2.015000000     3.115000000    -4.424000000
C     1.995000000     4.212000000    -3.565000000
H     2.876000000     4.842000000    -3.463000000
C     0.982000000     4.360000000    -2.715000000
O     1.088000000     5.334000000    -1.732000000
C     0.019000000     6.141000000    -1.383000000
C    -0.559000000     7.061000000    -2.256000000
H    -0.305000000     7.164000000    -3.308000000
C    -1.657000000     7.831000000    -1.818000000
H    -2.148000000     8.411000000    -2.595000000
C    -2.151000000     7.755000000    -0.557000000
H    -3.056000000     8.270000000    -0.245000000
C    -1.467000000     6.906000000     0.324000000
C    -0.426000000     6.027000000    -0.085000000
H     0.040000000     5.326000000     0.602000000
C     1.632000000     2.507000000     0.853000000
H     1.847000000     3.233000000     1.633000000
C     0.587000000     1.606000000     0.853000000
H    -0.137000000     1.593000000     1.663000000
C     0.403000000     0.696000000    -0.209000000
H    -0.517000000     0.039000000    -0.171000000
C     1.338000000     0.604000000    -1.162000000
H     1.212000000    -0.125000000    -1.958000000
C     2.415000000     1.535000000    -1.238000000
H     3.055000000     1.471000000    -2.114000000
C     2.551000000     2.541000000    -0.237000000
C     3.829000000     3.324000000    -0.088000000
O     4.670000000     3.198000000    -0.984000000
O     3.994000000     4.111000000     0.780000000
O     7.393000000     7.775000000    -2.256000000
H     6.920000000     8.603000000    -2.341000000
H     6.709000000     7.106000000    -2.272000000
O     9.581000000     2.318000000     0.884000000
H     8.788000000     2.421000000     0.357000000
H    10.298000000     2.385000000     0.254000000
O     4.908000000     7.944000000     1.361000000
H     5.433000000     8.743000000     1.302000000
H     5.550000000     7.245000000     1.485000000
O     2.789000000     6.206000000     1.892000000
H     3.071000000     5.468000000     1.352000000
H     3.388000000     6.916000000     1.661000000
O     8.635000000     6.779000000     2.321000000
H     9.394000000     6.556000000     1.780000000
H     8.024000000     6.055000000     2.185000000
O     2.008000000     6.742000000     4.716000000
H     1.972000000     6.378000000     3.832000000
H     2.371000000     7.619000000     4.600000000
O     3.407000000     3.492000000     3.383000000
H     3.175000000     3.762000000     2.494000000
H     4.338000000     3.699000000     3.460000000
O     3.592000000     7.955000000    -1.257000000
H     2.652000000     7.892000000    -1.087000000
H     3.996000000     7.901000000    -0.391000000
O     6.414000000     2.262000000    -2.866000000
H     7.026000000     2.114000000    -2.145000000
H     5.573000000     2.421000000    -2.438000000
O     5.069000000     5.671000000    -2.360000000
H     5.000000000     4.959000000    -1.724000000
H     4.422000000     6.314000000    -2.071000000
O     6.423000000     0.713000000     1.172000000
H     5.507000000     0.442000000     1.239000000
H     6.387000000     1.581000000     0.771000000
O     3.048000000     4.175000000     5.935000000
H     2.866000000     3.754000000     5.095000000
H     3.148000000     5.102000000     5.721000000
O     3.633000000     0.144000000     1.021000000
H     3.007000000     0.635000000     0.489000000
H     3.601000000    -0.745000000     0.667000000
O     7.243000000     2.969000000    -0.432000000
H     7.626000000     3.845000000    -0.485000000
H     6.335000000     3.088000000    -0.711000000
O     8.550000000     5.509000000    -0.947000000
H     9.150000000     6.147000000    -0.561000000
H     7.945000000     6.035000000    -1.471000000
O     7.084000000     4.828000000    -4.024000000
H     7.358000000     4.023000000    -3.585000000
H     6.495000000     5.253000000    -3.401000000
O     6.197000000     5.120000000     1.886000000
H     5.531000000     4.781000000     1.287000000
H     6.220000000     4.484000000     2.602000000
O     7.214000000     3.711000000     4.396000000
H     7.495000000     4.160000000     5.193000000
H     6.533000000     3.106000000     4.689000000
O     6.719000000     0.089000000     4.222000000
H     6.515000000     0.912000000     4.666000000
H     6.504000000     0.253000000     3.303000000
