215
-1432.18542
C     1.789000000    -4.239000000     3.274000000
H     1.413000000    -5.072000000     2.687000000
C     0.912000000    -3.215000000     3.559000000
C     1.444000000    -2.113000000     4.283000000
H     0.757000000    -1.291000000     4.468000000
C    -0.526000000    -3.142000000     3.009000000
O    -0.943000000    -4.440000000     2.538000000
H    -0.480000000    -2.463000000     2.145000000
O    -1.459000000    -2.738000000     3.907000000
C    -2.354000000    -1.856000000     3.408000000
C    -2.231000000    -0.493000000     3.747000000
H    -1.454000000    -0.242000000     4.464000000
C    -3.144000000     0.433000000     3.367000000
O    -2.901000000     1.715000000     3.673000000
C    -4.193000000     0.058000000     2.552000000
C    -5.172000000     1.087000000     1.919000000
H    -6.194000000     0.756000000     1.726000000
C    -4.475000000     1.678000000     0.633000000
C    -4.874000000     1.176000000    -0.659000000
H    -5.591000000     0.367000000    -0.767000000
H    -5.286000000     1.934000000     2.598000000
C    -4.282000000    -1.260000000     2.101000000
H    -5.140000000    -1.522000000     1.487000000
C    -3.421000000    -2.236000000     2.636000000
C    -3.581000000    -3.630000000     2.246000000
H    -4.627000000    -3.869000000     2.043000000
H    -3.160000000    -4.257000000     3.034000000
C    -2.688000000    -4.007000000     1.044000000
C    -3.121000000    -3.681000000    -0.223000000
H    -4.107000000    -3.270000000    -0.423000000
C    -1.379000000    -4.542000000     1.210000000
C    -0.551000000    -4.771000000     0.126000000
H     0.494000000    -4.991000000     0.325000000
C    -1.008000000    -4.470000000    -1.178000000
O    -0.113000000    -4.523000000    -2.295000000
C     0.329000000    -3.271000000    -2.813000000
C     1.827000000    -3.287000000    -3.017000000
C     2.350000000    -2.607000000    -4.106000000
H     1.728000000    -2.184000000    -4.891000000
C     2.697000000    -3.702000000    -2.014000000
H     2.282000000    -4.150000000    -1.114000000
O    -0.401000000    -2.877000000    -3.981000000
H     0.197000000    -2.566000000    -1.979000000
C    -2.343000000    -3.994000000    -1.345000000
C    -2.853000000    -3.738000000    -2.711000000
H    -3.940000000    -3.841000000    -2.719000000
H    -2.514000000    -4.407000000    -3.504000000
C    -2.648000000    -2.360000000    -3.137000000
C    -3.680000000    -1.445000000    -3.021000000
H    -4.621000000    -1.651000000    -2.517000000
C    -1.440000000    -2.026000000    -3.730000000
C    -1.184000000    -0.727000000    -4.209000000
H    -0.208000000    -0.429000000    -4.583000000
C    -2.155000000     0.207000000    -3.940000000
O    -1.828000000     1.533000000    -4.310000000
C    -1.509000000     2.446000000    -3.245000000
C    -0.270000000     3.277000000    -3.668000000
C     0.886000000     2.707000000    -4.200000000
H     0.905000000     1.647000000    -4.441000000
C    -0.221000000     4.601000000    -3.282000000
H    -1.058000000     5.112000000    -2.813000000
O    -2.634000000     3.262000000    -2.839000000
H    -1.086000000     1.921000000    -2.376000000
C    -3.389000000    -0.144000000    -3.350000000
C    -4.471000000     0.928000000    -3.126000000
H    -5.444000000     0.440000000    -3.039000000
H    -4.689000000     1.682000000    -3.886000000
C    -4.224000000     1.637000000    -1.837000000
C    -3.364000000     2.764000000    -1.760000000
C    -3.009000000     3.269000000    -0.498000000
H    -2.165000000     3.943000000    -0.380000000
C    -3.552000000     2.761000000     0.690000000
O    -3.139000000     3.203000000     1.859000000
C    -2.175000000     2.482000000     2.680000000
H    -1.634000000     1.774000000     2.035000000
C    -1.128000000     3.468000000     3.211000000
C    -0.324000000     3.063000000     4.266000000
H    -0.633000000     2.222000000     4.882000000
C    -0.812000000     4.699000000     2.552000000
H    -1.381000000     4.966000000     1.665000000
C     0.233000000     5.509000000     2.981000000
O     0.732000000     6.544000000     2.227000000
C     0.969000000     5.133000000     4.037000000
H     1.886000000     5.677000000     4.252000000
C     0.707000000     3.921000000     4.651000000
O     1.461000000     3.577000000     5.689000000
C     1.548000000     2.332000000     6.156000000
C     2.443000000     1.366000000     5.638000000
H     3.030000000     1.692000000     4.784000000
C     0.600000000     1.915000000     7.102000000
H    -0.109000000     2.665000000     7.444000000
C     0.640000000     0.609000000     7.618000000
H     0.037000000     0.376000000     8.491000000
C     1.526000000    -0.311000000     7.059000000
H     1.428000000    -1.353000000     7.354000000
C     2.365000000     0.001000000     6.008000000
O     3.187000000    -0.969000000     5.412000000
C     2.726000000    -2.073000000     4.719000000
C     3.604000000    -3.113000000     4.405000000
H     4.657000000    -3.012000000     4.658000000
C     3.093000000    -4.235000000     3.745000000
O     3.951000000    -5.232000000     3.434000000
C     4.022000000    -5.475000000     2.068000000
C     4.416000000    -4.505000000     1.149000000
H     4.722000000    -3.492000000     1.399000000
C     3.575000000    -6.741000000     1.646000000
H     3.303000000    -7.520000000     2.354000000
C     3.624000000    -7.059000000     0.275000000
H     3.291000000    -8.012000000    -0.129000000
C     4.099000000    -6.147000000    -0.616000000
H     4.014000000    -6.439000000    -1.660000000
C     4.462000000    -4.883000000    -0.184000000
O     4.876000000    -3.927000000    -1.158000000
C     4.026000000    -3.545000000    -2.142000000
C     4.563000000    -2.916000000    -3.233000000
H     5.621000000    -2.673000000    -3.274000000
C     3.749000000    -2.594000000    -4.286000000
O     4.302000000    -1.846000000    -5.399000000
C     3.729000000    -0.671000000    -5.769000000
C     3.791000000     0.405000000    -4.891000000
H     4.259000000     0.222000000    -3.927000000
C     3.363000000    -0.583000000    -7.102000000
H     3.458000000    -1.475000000    -7.717000000
C     2.935000000     0.710000000    -7.563000000
H     2.655000000     0.859000000    -8.603000000
C     3.020000000     1.815000000    -6.704000000
H     2.890000000     2.845000000    -7.026000000
C     3.418000000     1.688000000    -5.362000000
O     3.278000000     2.724000000    -4.427000000
C     2.135000000     3.395000000    -4.179000000
C     2.244000000     4.695000000    -3.626000000
H     3.182000000     5.212000000    -3.441000000
C     1.069000000     5.311000000    -3.248000000
O     1.065000000     6.537000000    -2.616000000
C     0.474000000     6.929000000    -1.414000000
C    -0.558000000     7.863000000    -1.494000000
H    -0.829000000     8.293000000    -2.454000000
C    -1.243000000     8.205000000    -0.337000000
H    -2.071000000     8.908000000    -0.285000000
C    -0.838000000     7.762000000     0.915000000
H    -1.291000000     8.258000000     1.770000000
C     0.256000000     6.926000000     0.971000000
C     0.959000000     6.544000000    -0.188000000
H     1.866000000     5.947000000    -0.125000000
C     2.076000000     2.305000000     1.647000000
H     2.219000000     2.741000000     2.633000000
C     1.129000000     1.238000000     1.486000000
H     0.588000000     0.855000000     2.347000000
C     0.823000000     0.761000000     0.203000000
H     0.032000000     0.028000000     0.109000000
C     1.522000000     1.308000000    -0.889000000
H     1.284000000     0.959000000    -1.891000000
C     2.543000000     2.228000000    -0.731000000
H     3.057000000     2.510000000    -1.647000000
C     2.795000000     2.798000000     0.513000000
C     3.796000000     3.955000000     0.698000000
O     4.204000000     4.574000000    -0.229000000
O     4.122000000     4.332000000     1.753000000
O     8.396000000     5.370000000     2.594000000
H     7.586000000     5.562000000     3.068000000
H     8.136000000     4.745000000     1.918000000
O     3.106000000     8.211000000     2.371000000
H     3.852000000     7.617000000     2.288000000
H     2.351000000     7.687000000     2.102000000
O     5.183000000     6.596000000     2.679000000
H     4.747000000     6.756000000     3.516000000
H     4.768000000     5.803000000     2.340000000
O     6.776000000     7.765000000    -2.311000000
H     7.416000000     7.144000000    -2.657000000
H     6.493000000     7.380000000    -1.482000000
O     3.792000000     7.852000000    -2.717000000
H     4.710000000     7.886000000    -2.449000000
H     3.546000000     6.933000000    -2.612000000
O     7.562000000     8.882000000     0.598000000
H     7.611000000     9.413000000    -0.197000000
H     7.097000000     8.090000000     0.329000000
O     5.191000000     2.994000000     3.690000000
H     4.567000000     3.348000000     3.058000000
H     4.872000000     3.299000000     4.539000000
O     6.025000000     0.038000000     2.215000000
H     6.242000000    -0.740000000     1.701000000
H     5.114000000     0.227000000     1.990000000
O     5.130000000     3.982000000     6.247000000
H     5.986000000     3.872000000     6.660000000
H     4.520000000     4.070000000     6.980000000
O     6.695000000     8.263000000     4.303000000
H     7.103000000     7.594000000     4.852000000
H     6.416000000     7.791000000     3.518000000
O     8.753000000     2.392000000    -0.870000000
H     7.953000000     2.797000000    -1.205000000
H     8.820000000     2.704000000     0.032000000
O     7.348000000     1.081000000     4.375000000
H     6.691000000     1.728000000     4.632000000
H     6.966000000     0.639000000     3.617000000
O     6.120000000     4.205000000    -1.752000000
H     5.415000000     4.303000000    -1.113000000
H     5.786000000     4.625000000    -2.545000000
O     6.308000000     1.470000000    -2.322000000
H     5.865000000     0.884000000    -1.710000000
H     6.057000000     2.349000000    -2.037000000
O     5.428000000     4.915000000    -4.436000000
H     5.757000000     5.192000000    -5.292000000
H     4.808000000     4.213000000    -4.634000000
O     8.649000000     5.647000000    -1.962000000
H     9.182000000     5.486000000    -1.184000000
H     7.881000000     5.087000000    -1.847000000
O     5.631000000     6.787000000    -0.001000000
H     5.983000000     6.798000000     0.889000000
H     4.931000000     6.135000000     0.026000000
O     6.838000000     3.587000000     1.290000000
H     6.928000000     3.037000000     2.068000000
H     6.078000000     4.139000000     1.474000000
O     4.107000000     6.480000000     5.268000000
H     4.279000000     5.563000000     5.481000000
H     4.576000000     6.974000000     5.940000000
