215
-1447.24210
C     1.736000000    -3.226000000     4.099000000
H     1.972000000    -3.985000000     3.357000000
C     0.610000000    -2.382000000     4.098000000
C     0.407000000    -1.573000000     5.103000000
H    -0.480000000    -0.945000000     5.112000000
C    -0.487000000    -2.493000000     3.041000000
O    -0.384000000    -3.847000000     2.587000000
H    -0.281000000    -1.843000000     2.178000000
O    -1.734000000    -2.227000000     3.637000000
C    -2.786000000    -1.665000000     2.982000000
C    -3.135000000    -0.379000000     3.317000000
H    -2.593000000     0.140000000     4.103000000
C    -4.066000000     0.223000000     2.440000000
O    -4.170000000     1.571000000     2.608000000
C    -4.669000000    -0.418000000     1.359000000
C    -5.630000000     0.297000000     0.459000000
H    -6.264000000    -0.474000000     0.017000000
C    -4.903000000     0.954000000    -0.757000000
C    -4.736000000     0.237000000    -1.952000000
H    -5.147000000    -0.768000000    -2.007000000
H    -6.198000000     1.045000000     1.017000000
C    -4.407000000    -1.785000000     1.166000000
H    -4.918000000    -2.408000000     0.435000000
C    -3.524000000    -2.430000000     2.014000000
C    -3.203000000    -3.958000000     1.826000000
H    -4.066000000    -4.407000000     1.328000000
H    -3.107000000    -4.483000000     2.778000000
C    -2.055000000    -4.103000000     0.810000000
C    -2.271000000    -4.296000000    -0.574000000
H    -3.247000000    -4.149000000    -1.028000000
C    -0.698000000    -4.174000000     1.244000000
C     0.355000000    -4.357000000     0.391000000
H     1.368000000    -4.393000000     0.784000000
C     0.083000000    -4.579000000    -0.968000000
O     1.177000000    -4.563000000    -1.798000000
C     1.479000000    -3.319000000    -2.408000000
C     2.975000000    -2.942000000    -2.325000000
C     3.524000000    -2.016000000    -3.282000000
H     3.085000000    -1.916000000    -4.271000000
C     3.606000000    -3.146000000    -1.163000000
H     3.159000000    -3.734000000    -0.365000000
O     0.969000000    -3.173000000    -3.690000000
H     0.875000000    -2.526000000    -1.941000000
C    -1.217000000    -4.551000000    -1.419000000
C    -1.594000000    -4.567000000    -2.944000000
H    -2.603000000    -4.980000000    -2.989000000
H    -0.924000000    -5.288000000    -3.417000000
C    -1.399000000    -3.162000000    -3.473000000
C    -2.536000000    -2.414000000    -3.645000000
H    -3.536000000    -2.756000000    -3.391000000
C    -0.246000000    -2.597000000    -3.868000000
C    -0.085000000    -1.273000000    -4.303000000
H     0.900000000    -0.850000000    -4.484000000
C    -1.282000000    -0.557000000    -4.423000000
O    -1.124000000     0.758000000    -4.778000000
C    -1.063000000     1.780000000    -3.676000000
C     0.230000000     2.693000000    -3.852000000
C     1.201000000     2.369000000    -4.779000000
H     1.061000000     1.561000000    -5.493000000
C     0.416000000     3.651000000    -2.857000000
H    -0.221000000     3.720000000    -1.978000000
O    -2.306000000     2.517000000    -3.625000000
H    -0.860000000     1.238000000    -2.741000000
C    -2.507000000    -1.081000000    -4.063000000
C    -3.695000000    -0.220000000    -4.140000000
H    -4.553000000    -0.884000000    -4.263000000
H    -3.663000000     0.436000000    -5.012000000
C    -3.894000000     0.705000000    -2.964000000
C    -3.325000000     2.057000000    -2.809000000
C    -3.431000000     2.704000000    -1.652000000
H    -2.968000000     3.680000000    -1.534000000
C    -4.179000000     2.188000000    -0.604000000
O    -4.169000000     2.805000000     0.574000000
C    -3.347000000     2.329000000     1.663000000
H    -2.572000000     1.677000000     1.232000000
C    -2.490000000     3.407000000     2.384000000
C    -2.162000000     3.184000000     3.748000000
H    -2.703000000     2.336000000     4.159000000
C    -1.956000000     4.496000000     1.715000000
H    -2.192000000     4.566000000     0.656000000
C    -1.208000000     5.445000000     2.446000000
O    -0.922000000     6.744000000     1.870000000
C    -0.934000000     5.189000000     3.820000000
H    -0.378000000     5.916000000     4.406000000
C    -1.377000000     4.084000000     4.489000000
O    -1.013000000     3.912000000     5.771000000
C    -0.952000000     2.687000000     6.422000000
C     0.110000000     1.738000000     6.194000000
H     0.766000000     1.866000000     5.337000000
C    -1.860000000     2.486000000     7.441000000
H    -2.626000000     3.205000000     7.720000000
C    -1.703000000     1.321000000     8.204000000
H    -2.354000000     1.071000000     9.038000000
C    -0.692000000     0.429000000     8.047000000
H    -0.483000000    -0.420000000     8.694000000
C     0.205000000     0.606000000     7.057000000
O     1.243000000    -0.300000000     6.920000000
C     1.414000000    -1.341000000     6.024000000
C     2.588000000    -2.077000000     5.974000000
H     3.315000000    -1.895000000     6.761000000
C     2.807000000    -3.010000000     4.997000000
O     3.893000000    -3.897000000     4.952000000
C     4.498000000    -4.164000000     3.718000000
C     4.696000000    -3.171000000     2.713000000
H     4.416000000    -2.157000000     2.986000000
C     4.632000000    -5.518000000     3.321000000
H     4.265000000    -6.323000000     3.952000000
C     4.987000000    -5.883000000     2.009000000
H     4.887000000    -6.901000000     1.642000000
C     5.289000000    -4.894000000     1.147000000
H     5.484000000    -5.137000000     0.106000000
C     5.066000000    -3.559000000     1.431000000
O     5.320000000    -2.591000000     0.504000000
C     4.828000000    -2.546000000    -0.859000000
C     5.374000000    -1.767000000    -1.805000000
H     6.251000000    -1.175000000    -1.554000000
C     4.730000000    -1.396000000    -3.008000000
O     5.460000000    -0.784000000    -4.035000000
C     4.931000000    -0.194000000    -5.098000000
C     4.269000000     1.026000000    -4.938000000
H     4.096000000     1.478000000    -3.965000000
C     5.005000000    -0.783000000    -6.360000000
H     5.509000000    -1.734000000    -6.509000000
C     4.383000000    -0.088000000    -7.417000000
H     4.527000000    -0.485000000    -8.419000000
C     3.728000000     1.138000000    -7.258000000
H     3.247000000     1.718000000    -8.042000000
C     3.673000000     1.703000000    -6.021000000
O     3.177000000     3.019000000    -5.864000000
C     2.306000000     3.205000000    -4.831000000
C     2.398000000     4.331000000    -4.003000000
H     3.260000000     4.981000000    -4.132000000
C     1.523000000     4.497000000    -2.925000000
O     1.692000000     5.465000000    -1.951000000
C     0.536000000     6.199000000    -1.460000000
C    -0.117000000     7.177000000    -2.197000000
H     0.283000000     7.393000000    -3.185000000
C    -1.090000000     7.961000000    -1.596000000
H    -1.701000000     8.691000000    -2.121000000
C    -1.268000000     7.855000000    -0.220000000
H    -1.951000000     8.569000000     0.234000000
C    -0.641000000     6.852000000     0.519000000
C     0.242000000     6.025000000    -0.133000000
H     0.675000000     5.159000000     0.361000000
C     1.119000000     2.052000000     1.521000000
H     1.121000000     2.553000000     2.485000000
C     0.085000000     1.140000000     1.222000000
H    -0.717000000     1.036000000     1.948000000
C     0.018000000     0.435000000     0.040000000
H    -0.879000000    -0.177000000    -0.171000000
C     1.023000000     0.651000000    -0.897000000
H     0.977000000     0.069000000    -1.814000000
C     2.122000000     1.559000000    -0.612000000
H     2.652000000     1.944000000    -1.480000000
C     2.150000000     2.283000000     0.590000000
C     3.124000000     3.367000000     0.850000000
O     3.869000000     3.679000000    -0.076000000
O     3.182000000     3.844000000     1.962000000
O     5.933000000     3.669000000    -4.129000000
H     5.623000000     4.300000000    -3.479000000
H     5.261000000     3.679000000    -4.810000000
O     2.988000000     0.588000000     4.116000000
H     3.426000000     0.636000000     3.267000000
H     2.298000000    -0.065000000     3.993000000
O     5.224000000     5.212000000     3.018000000
H     5.868000000     4.568000000     2.722000000
H     4.445000000     5.032000000     2.490000000
O     2.269000000    -1.084000000     1.456000000
H     2.046000000    -0.158000000     1.358000000
H     2.951000000    -1.236000000     0.802000000
O     4.901000000     0.732000000     1.878000000
H     5.787000000     0.395000000     2.014000000
H     4.861000000     0.929000000     0.942000000
O     5.454000000     6.656000000     5.294000000
H     5.905000000     7.347000000     4.809000000
H     5.257000000     5.991000000     4.634000000
O     5.394000000     4.236000000     6.881000000
H     5.481000000     5.083000000     6.444000000
H     4.750000000     3.761000000     6.356000000
O     5.563000000     8.258000000     1.728000000
H     5.563000000     8.009000000     2.652000000
H     5.285000000     7.467000000     1.266000000
O     3.709000000     3.078000000     4.956000000
H     3.718000000     3.642000000     4.183000000
H     3.463000000     2.216000000     4.621000000
O     5.648000000     5.056000000    -1.800000000
H     5.132000000     4.489000000    -1.227000000
H     5.638000000     5.908000000    -1.364000000
O     4.310000000     0.796000000     6.727000000
H     4.003000000     0.590000000     5.844000000
H     3.593000000     1.294000000     7.120000000
O     5.684000000     1.361000000    -0.691000000
H     6.279000000     1.480000000    -1.431000000
H     4.872000000     1.785000000    -0.967000000
O     9.110000000     3.299000000    -0.617000000
H     8.608000000     2.830000000    -1.284000000
H     8.495000000     3.418000000     0.106000000
O     7.524000000     1.956000000    -2.414000000
H     7.140000000     2.647000000    -2.953000000
H     8.108000000     1.484000000    -3.009000000
O     7.667000000     0.494000000     1.716000000
H     8.571000000     0.780000000     1.855000000
H     7.539000000     0.555000000     0.770000000
O     3.758000000     6.279000000     0.197000000
H     3.693000000     5.326000000     0.262000000
H     3.232000000     6.503000000    -0.571000000
O     2.061000000     6.316000000     2.839000000
H     1.916000000     5.430000000     2.507000000
H     2.567000000     6.750000000     2.153000000
O     2.039000000     4.488000000     7.154000000
H     2.030000000     4.007000000     7.982000000
H     2.563000000     3.943000000     6.567000000
O     6.528000000     3.552000000     0.830000000
H     5.630000000     3.821000000     0.635000000
H     6.454000000     2.628000000     1.069000000
