215
-1432.05376
C     1.776000000    -3.126000000     3.898000000
H     1.847000000    -3.651000000     2.948000000
C     0.562000000    -2.559000000     4.233000000
C     0.468000000    -1.646000000     5.344000000
H    -0.451000000    -1.112000000     5.570000000
C    -0.718000000    -2.843000000     3.386000000
O    -0.815000000    -4.205000000     2.924000000
H    -0.704000000    -2.094000000     2.580000000
O    -1.978000000    -2.703000000     4.149000000
C    -2.945000000    -1.972000000     3.495000000
C    -3.004000000    -0.586000000     3.753000000
H    -2.373000000    -0.129000000     4.512000000
C    -3.704000000     0.260000000     2.950000000
O    -3.524000000     1.593000000     3.132000000
C    -4.535000000    -0.292000000     1.905000000
C    -5.430000000     0.575000000     1.049000000
H    -6.338000000     0.060000000     0.729000000
C    -4.724000000     1.163000000    -0.171000000
C    -4.756000000     0.404000000    -1.342000000
H    -5.168000000    -0.602000000    -1.348000000
H    -5.840000000     1.397000000     1.640000000
C    -4.519000000    -1.741000000     1.716000000
H    -5.187000000    -2.177000000     0.977000000
C    -3.638000000    -2.544000000     2.423000000
C    -3.576000000    -4.029000000     2.096000000
H    -4.509000000    -4.375000000     1.647000000
H    -3.407000000    -4.625000000     2.996000000
C    -2.423000000    -4.314000000     1.122000000
C    -2.667000000    -4.418000000    -0.294000000
H    -3.676000000    -4.338000000    -0.690000000
C    -1.084000000    -4.345000000     1.573000000
C     0.005000000    -4.348000000     0.717000000
H     0.977000000    -4.149000000     1.162000000
C    -0.267000000    -4.476000000    -0.688000000
O     0.882000000    -4.561000000    -1.529000000
C     1.279000000    -3.275000000    -2.184000000
C     2.759000000    -2.867000000    -2.274000000
C     3.199000000    -2.073000000    -3.313000000
H     2.659000000    -1.710000000    -4.183000000
C     3.567000000    -3.162000000    -1.244000000
H     3.130000000    -3.756000000    -0.446000000
O     0.697000000    -3.320000000    -3.535000000
H     0.754000000    -2.506000000    -1.598000000
C    -1.595000000    -4.456000000    -1.144000000
C    -1.858000000    -4.424000000    -2.663000000
H    -2.865000000    -4.799000000    -2.854000000
H    -1.248000000    -5.157000000    -3.195000000
C    -1.680000000    -3.015000000    -3.205000000
C    -2.817000000    -2.229000000    -3.183000000
H    -3.731000000    -2.607000000    -2.734000000
C    -0.466000000    -2.569000000    -3.730000000
C    -0.369000000    -1.286000000    -4.235000000
H     0.577000000    -0.943000000    -4.647000000
C    -1.546000000    -0.533000000    -4.250000000
O    -1.433000000     0.700000000    -4.685000000
C    -1.343000000     1.766000000    -3.670000000
C    -0.298000000     2.796000000    -4.101000000
C     0.791000000     2.414000000    -4.891000000
H     0.726000000     1.450000000    -5.389000000
C    -0.191000000     4.003000000    -3.456000000
H    -0.964000000     4.233000000    -2.727000000
O    -2.576000000     2.457000000    -3.553000000
H    -0.963000000     1.333000000    -2.733000000
C    -2.748000000    -0.967000000    -3.707000000
C    -4.020000000    -0.056000000    -3.758000000
H    -4.910000000    -0.687000000    -3.798000000
H    -4.207000000     0.474000000    -4.694000000
C    -4.063000000     0.823000000    -2.518000000
C    -3.371000000     2.062000000    -2.511000000
C    -3.303000000     2.801000000    -1.281000000
H    -2.693000000     3.690000000    -1.140000000
C    -3.947000000     2.346000000    -0.148000000
O    -3.711000000     2.975000000     1.077000000
C    -2.840000000     2.221000000     2.035000000
H    -2.317000000     1.490000000     1.400000000
C    -1.779000000     3.225000000     2.498000000
C    -1.010000000     3.071000000     3.620000000
H    -1.125000000     2.189000000     4.245000000
C    -1.415000000     4.382000000     1.760000000
H    -1.806000000     4.456000000     0.748000000
C    -0.402000000     5.238000000     2.157000000
O    -0.099000000     6.510000000     1.566000000
C     0.177000000     5.150000000     3.392000000
H     0.947000000     5.839000000     3.731000000
C    -0.140000000     3.989000000     4.110000000
O     0.680000000     3.722000000     5.207000000
C     0.452000000     2.723000000     6.148000000
C     1.321000000     1.664000000     6.292000000
H     2.165000000     1.661000000     5.608000000
C    -0.672000000     2.851000000     6.967000000
H    -1.172000000     3.814000000     7.026000000
C    -1.012000000     1.707000000     7.732000000
H    -1.937000000     1.755000000     8.301000000
C    -0.104000000     0.634000000     7.870000000
H    -0.417000000    -0.172000000     8.529000000
C     1.047000000     0.619000000     7.142000000
O     1.767000000    -0.566000000     7.175000000
C     1.581000000    -1.461000000     6.184000000
C     2.766000000    -2.053000000     5.846000000
H     3.626000000    -1.831000000     6.472000000
C     2.899000000    -2.847000000     4.683000000
O     4.166000000    -3.211000000     4.394000000
C     4.500000000    -3.882000000     3.209000000
C     4.903000000    -3.274000000     2.066000000
H     4.992000000    -2.191000000     2.109000000
C     4.318000000    -5.235000000     3.162000000
H     3.778000000    -5.843000000     3.883000000
C     4.772000000    -5.955000000     2.031000000
H     4.631000000    -7.029000000     1.944000000
C     5.325000000    -5.304000000     0.893000000
H     5.678000000    -5.861000000     0.029000000
C     5.396000000    -3.953000000     0.928000000
O     5.839000000    -3.304000000    -0.172000000
C     4.950000000    -2.972000000    -1.238000000
C     5.370000000    -2.186000000    -2.293000000
H     6.414000000    -1.889000000    -2.351000000
C     4.564000000    -1.644000000    -3.310000000
O     5.152000000    -0.845000000    -4.287000000
C     4.508000000    -0.179000000    -5.314000000
C     3.658000000     0.917000000    -5.267000000
H     3.502000000     1.303000000    -4.263000000
C     4.923000000    -0.581000000    -6.547000000
H     5.583000000    -1.441000000    -6.630000000
C     4.502000000     0.101000000    -7.683000000
H     4.820000000    -0.160000000    -8.689000000
C     3.652000000     1.217000000    -7.534000000
H     3.503000000     1.868000000    -8.391000000
C     3.230000000     1.609000000    -6.335000000
O     2.740000000     2.890000000    -6.106000000
C     1.772000000     3.366000000    -5.218000000
C     1.863000000     4.603000000    -4.672000000
H     2.701000000     5.248000000    -4.921000000
C     0.869000000     4.906000000    -3.694000000
O     0.947000000     6.181000000    -3.070000000
C     0.037000000     6.546000000    -2.052000000
C    -1.227000000     6.929000000    -2.420000000
H    -1.388000000     7.118000000    -3.478000000
C    -2.114000000     7.312000000    -1.447000000
H    -3.072000000     7.704000000    -1.778000000
C    -1.699000000     7.268000000    -0.032000000
H    -2.344000000     7.545000000     0.799000000
C    -0.490000000     6.713000000     0.269000000
C     0.384000000     6.324000000    -0.720000000
H     1.383000000     5.924000000    -0.569000000
C     1.436000000     1.138000000     1.782000000
H     1.674000000     1.439000000     2.800000000
C     0.237000000     0.410000000     1.556000000
H    -0.506000000     0.218000000     2.325000000
C    -0.081000000    -0.051000000     0.302000000
H    -0.995000000    -0.652000000     0.083000000
C     0.820000000     0.129000000    -0.744000000
H     0.631000000    -0.356000000    -1.698000000
C     1.889000000     0.982000000    -0.601000000
H     2.499000000     1.078000000    -1.496000000
C     2.297000000     1.453000000     0.693000000
C     3.586000000     2.191000000     0.887000000
O     4.181000000     2.615000000    -0.072000000
O     4.041000000     2.271000000     2.015000000
O     8.262000000     2.890000000     3.634000000
H     7.543000000     2.630000000     3.057000000
H     8.981000000     3.100000000     3.039000000
O     2.535000000     8.139000000     1.982000000
H     1.693000000     7.740000000     1.764000000
H     2.927000000     7.541000000     2.617000000
O     6.115000000    -0.736000000     5.816000000
H     5.651000000    -0.786000000     4.981000000
H     6.854000000    -0.152000000     5.645000000
O     5.355000000     4.651000000     2.068000000
H     5.594000000     4.853000000     2.972000000
H     5.229000000     3.702000000     2.059000000
O     4.680000000     7.256000000    -2.975000000
H     4.199000000     7.320000000    -3.800000000
H     4.733000000     6.316000000    -2.801000000
O     4.133000000     0.151000000     4.170000000
H     3.955000000     0.507000000     3.299000000
H     3.686000000    -0.695000000     4.179000000
O     7.580000000    -0.821000000     3.013000000
H     8.005000000    -0.967000000     2.168000000
H     7.151000000     0.030000000     2.921000000
O     7.402000000    -0.844000000     0.244000000
H     8.259000000    -1.252000000     0.374000000
H     6.867000000    -1.533000000    -0.150000000
O     7.504000000     3.001000000    -2.795000000
H     6.729000000     2.630000000    -3.218000000
H     7.213000000     3.214000000    -1.908000000
O     8.970000000     0.865000000    -1.779000000
H     8.658000000     1.725000000    -2.061000000
H     8.180000000     0.406000000    -1.492000000
O     4.406000000     3.194000000     4.566000000
H     4.381000000     2.828000000     3.682000000
H     4.333000000     2.434000000     5.142000000
O     4.665000000     4.506000000    -1.978000000
H     4.403000000     3.712000000    -1.512000000
H     4.857000000     4.209000000    -2.867000000
O     5.646000000     0.948000000    -1.682000000
H     5.036000000     0.227000000    -1.839000000
H     5.090000000     1.678000000    -1.410000000
O     5.226000000     3.990000000    -4.624000000
H     5.828000000     4.569000000    -5.090000000
H     4.656000000     3.637000000    -5.307000000
O     7.164000000     3.821000000    -0.184000000
H     6.253000000     4.049000000    -0.001000000
H     7.468000000     3.389000000     0.615000000
O     7.533000000     6.740000000     1.458000000
H     7.902000000     6.300000000     2.224000000
H     6.862000000     6.138000000     1.136000000
O     4.018000000     6.340000000     0.204000000
H     3.903000000     5.808000000    -0.584000000
H     4.293000000     5.716000000     0.876000000
O     6.556000000     1.392000000     1.847000000
H     5.636000000     1.606000000     1.692000000
H     6.815000000     0.878000000     1.083000000
O     4.896000000     5.790000000     4.635000000
H     4.530000000     4.906000000     4.609000000
H     4.140000000     6.359000000     4.781000000
