215
-1469.21600
C     1.962000000    -2.901000000     4.370000000
H     2.112000000    -3.650000000     3.597000000
C     0.758000000    -2.213000000     4.527000000
C     0.576000000    -1.212000000     5.463000000
H    -0.244000000    -0.508000000     5.342000000
C    -0.376000000    -2.493000000     3.512000000
O    -0.424000000    -3.894000000     3.099000000
H    -0.305000000    -1.884000000     2.599000000
O    -1.647000000    -2.145000000     4.077000000
C    -2.611000000    -1.670000000     3.218000000
C    -2.780000000    -0.290000000     3.331000000
H    -2.172000000     0.404000000     3.906000000
C    -3.635000000     0.389000000     2.517000000
O    -3.729000000     1.754000000     2.561000000
C    -4.494000000    -0.386000000     1.661000000
C    -5.474000000     0.300000000     0.723000000
H    -6.277000000    -0.409000000     0.508000000
C    -4.739000000     0.727000000    -0.544000000
C    -4.666000000    -0.195000000    -1.603000000
H    -5.209000000    -1.120000000    -1.426000000
H    -5.965000000     1.119000000     1.252000000
C    -4.420000000    -1.744000000     1.620000000
H    -5.049000000    -2.368000000     0.990000000
C    -3.441000000    -2.444000000     2.356000000
C    -3.285000000    -3.918000000     2.255000000
H    -4.153000000    -4.440000000     1.846000000
H    -3.160000000    -4.389000000     3.232000000
C    -2.073000000    -4.255000000     1.327000000
C    -2.286000000    -4.542000000    -0.027000000
H    -3.291000000    -4.537000000    -0.441000000
C    -0.749000000    -4.198000000     1.765000000
C     0.351000000    -4.362000000     0.942000000
H     1.322000000    -4.189000000     1.399000000
C     0.139000000    -4.594000000    -0.416000000
O     1.204000000    -4.637000000    -1.314000000
C     1.407000000    -3.431000000    -2.113000000
C     2.856000000    -2.904000000    -2.127000000
C     3.455000000    -2.306000000    -3.267000000
H     2.899000000    -2.058000000    -4.168000000
C     3.571000000    -3.059000000    -0.924000000
H     3.210000000    -3.685000000    -0.113000000
O     0.933000000    -3.596000000    -3.434000000
H     0.809000000    -2.599000000    -1.713000000
C    -1.197000000    -4.634000000    -0.901000000
C    -1.480000000    -4.874000000    -2.424000000
H    -2.422000000    -5.417000000    -2.524000000
H    -0.709000000    -5.486000000    -2.896000000
C    -1.516000000    -3.501000000    -3.177000000
C    -2.676000000    -2.741000000    -3.389000000
H    -3.664000000    -3.177000000    -3.268000000
C    -0.301000000    -2.943000000    -3.626000000
C    -0.244000000    -1.707000000    -4.215000000
H     0.682000000    -1.267000000    -4.576000000
C    -1.400000000    -0.954000000    -4.323000000
O    -1.291000000     0.309000000    -4.887000000
C    -1.407000000     1.390000000    -3.935000000
C    -0.322000000     2.428000000    -4.171000000
C     0.817000000     2.041000000    -4.896000000
H     0.916000000     1.101000000    -5.434000000
C    -0.330000000     3.668000000    -3.479000000
H    -1.144000000     3.978000000    -2.828000000
O    -2.821000000     1.910000000    -3.891000000
H    -1.142000000     0.961000000    -2.958000000
C    -2.676000000    -1.449000000    -3.973000000
C    -3.943000000    -0.708000000    -4.041000000
H    -4.761000000    -1.421000000    -3.920000000
H    -3.973000000    -0.286000000    -5.048000000
C    -4.168000000     0.221000000    -2.846000000
C    -3.519000000     1.472000000    -2.849000000
C    -3.498000000     2.374000000    -1.774000000
H    -2.899000000     3.280000000    -1.820000000
C    -4.087000000     1.948000000    -0.563000000
O    -3.970000000     2.764000000     0.535000000
C    -3.052000000     2.368000000     1.537000000
H    -2.377000000     1.684000000     1.002000000
C    -2.169000000     3.525000000     2.091000000
C    -1.411000000     3.254000000     3.236000000
H    -1.488000000     2.316000000     3.779000000
C    -2.057000000     4.791000000     1.480000000
H    -2.681000000     4.923000000     0.600000000
C    -1.229000000     5.793000000     2.044000000
O    -1.014000000     6.924000000     1.399000000
C    -0.526000000     5.519000000     3.222000000
H     0.213000000     6.207000000     3.625000000
C    -0.614000000     4.279000000     3.835000000
O     0.088000000     4.153000000     5.017000000
C    -0.159000000     3.147000000     5.916000000
C     0.880000000     2.222000000     6.192000000
H     1.819000000     2.188000000     5.646000000
C    -1.273000000     3.210000000     6.677000000
H    -1.880000000     4.086000000     6.465000000
C    -1.451000000     2.236000000     7.636000000
H    -2.342000000     2.224000000     8.258000000
C    -0.526000000     1.179000000     7.842000000
H    -0.811000000     0.356000000     8.493000000
C     0.649000000     1.150000000     7.096000000
O     1.563000000     0.103000000     7.211000000
C     1.689000000    -0.920000000     6.265000000
C     2.895000000    -1.496000000     6.086000000
H     3.719000000    -1.207000000     6.734000000
C     3.076000000    -2.496000000     5.098000000
O     4.277000000    -3.139000000     4.924000000
C     4.679000000    -3.662000000     3.661000000
C     5.065000000    -2.938000000     2.543000000
H     5.161000000    -1.856000000     2.575000000
C     4.543000000    -5.023000000     3.505000000
H     4.131000000    -5.635000000     4.304000000
C     4.754000000    -5.664000000     2.313000000
H     4.709000000    -6.745000000     2.204000000
C     5.164000000    -4.890000000     1.228000000
H     5.485000000    -5.410000000     0.330000000
C     5.329000000    -3.541000000     1.369000000
O     5.697000000    -2.854000000     0.302000000
C     4.950000000    -2.766000000    -0.839000000
C     5.505000000    -2.222000000    -2.015000000
H     6.579000000    -2.053000000    -2.026000000
C     4.759000000    -1.937000000    -3.187000000
O     5.423000000    -1.371000000    -4.229000000
C     4.809000000    -0.608000000    -5.196000000
C     4.211000000     0.634000000    -4.846000000
H     4.266000000     0.983000000    -3.818000000
C     4.864000000    -1.021000000    -6.503000000
H     5.502000000    -1.878000000    -6.703000000
C     4.363000000    -0.249000000    -7.528000000
H     4.322000000    -0.502000000    -8.584000000
C     3.744000000     0.961000000    -7.192000000
H     3.247000000     1.546000000    -7.962000000
C     3.635000000     1.393000000    -5.873000000
O     2.980000000     2.627000000    -5.709000000
C     1.897000000     2.906000000    -4.861000000
C     1.909000000     4.104000000    -4.191000000
H     2.819000000     4.695000000    -4.135000000
C     0.783000000     4.482000000    -3.470000000
O     0.850000000     5.692000000    -2.797000000
C    -0.149000000     6.343000000    -2.084000000
C    -0.912000000     7.366000000    -2.682000000
H    -0.759000000     7.698000000    -3.705000000
C    -1.839000000     8.114000000    -2.009000000
H    -2.508000000     8.859000000    -2.431000000
C    -1.934000000     7.916000000    -0.583000000
H    -2.625000000     8.520000000    -0.001000000
C    -1.130000000     7.026000000     0.003000000
C    -0.241000000     6.187000000    -0.705000000
H     0.366000000     5.480000000    -0.146000000
C     0.955000000     1.934000000     1.097000000
H     0.894000000     2.616000000     1.941000000
C     0.104000000     0.846000000     0.841000000
H    -0.699000000     0.664000000     1.550000000
C     0.257000000     0.114000000    -0.276000000
H    -0.387000000    -0.665000000    -0.488000000
C     1.294000000     0.440000000    -1.203000000
H     1.412000000    -0.163000000    -2.100000000
C     2.151000000     1.545000000    -0.953000000
H     2.969000000     1.799000000    -1.622000000
C     1.962000000     2.340000000     0.232000000
C     2.883000000     3.522000000     0.597000000
O     3.863000000     3.783000000    -0.107000000
O     2.776000000     4.177000000     1.573000000
O     6.233000000     4.544000000     3.957000000
H     5.329000000     4.250000000     4.068000000
H     6.744000000     3.735000000     3.920000000
O     5.298000000     0.630000000     4.245000000
H     4.583000000     0.299000000     3.702000000
H     6.082000000     0.505000000     3.710000000
O     5.587000000     5.503000000     1.286000000
H     5.699000000     4.869000000     1.994000000
H     4.862000000     5.157000000     0.767000000
O     3.262000000     8.124000000    -2.215000000
H     3.931000000     8.809000000    -2.207000000
H     3.753000000     7.309000000    -2.105000000
O     3.414000000     0.187000000     2.188000000
H     2.523000000     0.452000000     1.957000000
H     3.779000000    -0.161000000     1.375000000
O     7.700000000     0.497000000     2.826000000
H     8.028000000    -0.202000000     2.261000000
H     7.556000000     1.236000000     2.234000000
O     1.196000000     9.168000000    -0.456000000
H     1.432000000     8.324000000    -0.070000000
H     1.710000000     9.215000000    -1.262000000
O     8.032000000     0.670000000    -1.009000000
H     7.213000000     1.146000000    -0.875000000
H     8.147000000     0.160000000    -0.207000000
O     3.776000000     3.483000000     4.064000000
H     3.304000000     3.741000000     3.273000000
H     4.169000000     2.638000000     3.844000000
O     4.434000000     5.774000000    -1.922000000
H     4.011000000     5.044000000    -1.468000000
H     4.691000000     5.412000000    -2.770000000
O     5.763000000     2.201000000    -0.785000000
H     6.238000000     2.567000000    -1.531000000
H     5.003000000     2.774000000    -0.681000000
O     6.916000000     3.057000000    -3.046000000
H     6.772000000     3.668000000    -3.768000000
H     7.739000000     2.619000000    -3.264000000
O     7.221000000     6.254000000    -1.204000000
H     6.527000000     6.500000000    -0.592000000
H     6.795000000     5.661000000    -1.823000000
O     5.328000000     8.668000000     0.970000000
H     4.509000000     8.201000000     0.807000000
H     5.735000000     8.193000000     1.695000000
O     2.638000000     6.738000000     1.202000000
H     2.785000000     5.793000000     1.244000000
H     2.670000000     7.026000000     2.114000000
O     8.741000000     5.121000000     1.020000000
H     8.174000000     5.470000000     0.332000000
H     8.550000000     5.664000000     1.785000000
O     2.920000000     5.684000000     5.756000000
H     2.983000000     5.250000000     6.607000000
H     3.242000000     5.034000000     5.132000000
O     7.670000000     2.717000000     1.506000000
H     7.022000000     2.741000000     0.802000000
H     8.024000000     3.606000000     1.536000000
O     2.768000000     7.354000000     3.833000000
H     2.008000000     7.925000000     3.944000000
H     2.719000000     6.744000000     4.569000000
