215
-1455.34366
C     1.606000000    -3.392000000     3.961000000
H     1.538000000    -4.273000000     3.328000000
C     0.490000000    -2.580000000     3.920000000
C     0.349000000    -1.536000000     4.780000000
H    -0.603000000    -1.028000000     4.913000000
C    -0.695000000    -2.868000000     2.972000000
O    -0.798000000    -4.221000000     2.600000000
H    -0.635000000    -2.220000000     2.086000000
O    -1.936000000    -2.513000000     3.548000000
C    -2.847000000    -1.849000000     2.722000000
C    -3.133000000    -0.529000000     2.969000000
H    -2.575000000    -0.022000000     3.752000000
C    -4.062000000     0.176000000     2.216000000
O    -4.022000000     1.539000000     2.312000000
C    -4.783000000    -0.491000000     1.234000000
C    -5.632000000     0.401000000     0.336000000
H    -6.326000000    -0.250000000    -0.200000000
C    -4.836000000     1.104000000    -0.810000000
C    -4.681000000     0.483000000    -2.046000000
H    -5.138000000    -0.501000000    -2.105000000
H    -6.228000000     1.063000000     0.968000000
C    -4.523000000    -1.835000000     0.969000000
H    -5.078000000    -2.342000000     0.184000000
C    -3.619000000    -2.532000000     1.760000000
C    -3.483000000    -4.016000000     1.439000000
H    -4.388000000    -4.397000000     0.960000000
H    -3.478000000    -4.483000000     2.425000000
C    -2.203000000    -4.350000000     0.717000000
C    -2.343000000    -4.325000000    -0.659000000
H    -3.371000000    -4.191000000    -0.987000000
C    -0.940000000    -4.467000000     1.309000000
C     0.182000000    -4.570000000     0.485000000
H     1.207000000    -4.735000000     0.806000000
C     0.023000000    -4.553000000    -0.925000000
O     1.217000000    -4.578000000    -1.676000000
C     1.693000000    -3.308000000    -2.274000000
C     3.239000000    -3.090000000    -2.061000000
C     3.871000000    -2.080000000    -2.750000000
H     3.391000000    -1.408000000    -3.456000000
C     3.919000000    -3.645000000    -0.967000000
H     3.389000000    -4.406000000    -0.400000000
O     1.188000000    -3.212000000    -3.696000000
H     1.209000000    -2.474000000    -1.745000000
C    -1.272000000    -4.469000000    -1.530000000
C    -1.392000000    -4.378000000    -3.029000000
H    -2.383000000    -4.714000000    -3.341000000
H    -0.617000000    -4.964000000    -3.528000000
C    -1.199000000    -2.921000000    -3.546000000
C    -2.387000000    -2.146000000    -3.725000000
H    -3.339000000    -2.464000000    -3.309000000
C     0.052000000    -2.476000000    -3.905000000
C     0.175000000    -1.150000000    -4.316000000
H     1.079000000    -0.676000000    -4.691000000
C    -0.953000000    -0.297000000    -4.280000000
O    -0.822000000     0.978000000    -4.798000000
C    -0.942000000     2.031000000    -3.831000000
C     0.160000000     3.089000000    -3.949000000
C     1.494000000     2.763000000    -4.336000000
H     1.782000000     1.721000000    -4.453000000
C    -0.053000000     4.422000000    -3.647000000
H    -0.994000000     4.652000000    -3.153000000
O    -2.239000000     2.618000000    -3.848000000
H    -0.733000000     1.543000000    -2.867000000
C    -2.274000000    -0.784000000    -4.040000000
C    -3.588000000     0.045000000    -4.279000000
H    -4.422000000    -0.646000000    -4.420000000
H    -3.509000000     0.679000000    -5.165000000
C    -3.784000000     0.949000000    -3.034000000
C    -3.112000000     2.174000000    -2.893000000
C    -3.216000000     2.849000000    -1.632000000
H    -2.823000000     3.841000000    -1.428000000
C    -4.071000000     2.262000000    -0.660000000
O    -4.042000000     2.842000000     0.571000000
C    -3.130000000     2.214000000     1.485000000
H    -2.429000000     1.568000000     0.935000000
C    -2.379000000     3.250000000     2.290000000
C    -2.186000000     3.118000000     3.677000000
H    -2.733000000     2.353000000     4.221000000
C    -1.635000000     4.176000000     1.592000000
H    -1.708000000     4.195000000     0.507000000
C    -0.891000000     5.130000000     2.233000000
O    -0.169000000     6.096000000     1.497000000
C    -0.684000000     5.068000000     3.608000000
H    -0.215000000     5.912000000     4.107000000
C    -1.357000000     4.030000000     4.312000000
O    -1.230000000     3.929000000     5.710000000
C    -1.005000000     2.705000000     6.286000000
C     0.142000000     1.900000000     5.925000000
H     0.925000000     2.169000000     5.221000000
C    -1.935000000     2.189000000     7.215000000
H    -2.823000000     2.752000000     7.490000000
C    -1.770000000     0.952000000     7.863000000
H    -2.416000000     0.502000000     8.613000000
C    -0.716000000     0.210000000     7.508000000
H    -0.386000000    -0.695000000     8.012000000
C     0.263000000     0.642000000     6.596000000
O     1.412000000    -0.074000000     6.369000000
C     1.472000000    -1.211000000     5.550000000
C     2.720000000    -1.854000000     5.373000000
H     3.562000000    -1.324000000     5.812000000
C     2.744000000    -3.023000000     4.617000000
O     3.889000000    -3.756000000     4.577000000
C     4.220000000    -4.483000000     3.490000000
C     5.085000000    -3.883000000     2.559000000
H     5.449000000    -2.883000000     2.780000000
C     3.815000000    -5.777000000     3.324000000
H     3.075000000    -6.116000000     4.045000000
C     4.248000000    -6.508000000     2.181000000
H     3.811000000    -7.490000000     2.015000000
C     5.014000000    -5.876000000     1.196000000
H     5.122000000    -6.341000000     0.219000000
C     5.419000000    -4.581000000     1.394000000
O     5.996000000    -3.965000000     0.270000000
C     5.231000000    -3.346000000    -0.697000000
C     5.791000000    -2.252000000    -1.301000000
H     6.794000000    -1.932000000    -1.029000000
C     5.159000000    -1.678000000    -2.373000000
O     5.758000000    -0.528000000    -2.889000000
C     5.350000000     0.262000000    -3.937000000
C     4.915000000     1.573000000    -3.733000000
H     4.909000000     1.934000000    -2.708000000
C     5.307000000    -0.239000000    -5.200000000
H     5.661000000    -1.234000000    -5.457000000
C     4.728000000     0.488000000    -6.263000000
H     4.606000000     0.059000000    -7.254000000
C     4.303000000     1.804000000    -6.067000000
H     3.867000000     2.445000000    -6.830000000
C     4.313000000     2.319000000    -4.735000000
O     3.767000000     3.500000000    -4.543000000
C     2.466000000     3.762000000    -4.393000000
C     2.189000000     5.093000000    -4.081000000
H     3.019000000     5.795000000    -4.053000000
C     0.879000000     5.406000000    -3.682000000
O     0.639000000     6.660000000    -3.156000000
C    -0.170000000     6.829000000    -2.037000000
C    -1.503000000     7.316000000    -2.231000000
H    -1.822000000     7.651000000    -3.215000000
C    -2.369000000     7.426000000    -1.182000000
H    -3.385000000     7.805000000    -1.249000000
C    -1.960000000     6.986000000     0.053000000
H    -2.668000000     6.940000000     0.876000000
C    -0.592000000     6.521000000     0.244000000
C     0.246000000     6.429000000    -0.797000000
H     1.248000000     6.048000000    -0.611000000
C     1.243000000     1.803000000     1.420000000
H     1.172000000     2.333000000     2.367000000
C     0.262000000     0.888000000     1.162000000
H    -0.600000000     0.816000000     1.820000000
C     0.158000000     0.153000000    -0.010000000
H    -0.666000000    -0.540000000    -0.153000000
C     1.208000000     0.339000000    -0.924000000
H     1.216000000    -0.197000000    -1.869000000
C     2.202000000     1.352000000    -0.687000000
H     2.903000000     1.544000000    -1.495000000
C     2.233000000     2.099000000     0.494000000
C     3.107000000     3.228000000     0.791000000
O     3.780000000     3.707000000    -0.122000000
O     3.146000000     3.734000000     1.870000000
O     6.228000000     6.248000000    -3.360000000
H     6.169000000     7.146000000    -3.033000000
H     5.410000000     5.837000000    -3.081000000
O     4.026000000     1.056000000     3.955000000
H     4.608000000     0.972000000     4.711000000
H     4.540000000     0.722000000     3.220000000
O     4.974000000     7.519000000     4.767000000
H     4.214000000     7.347000000     4.212000000
H     4.679000000     8.203000000     5.370000000
O     4.440000000    -0.457000000     1.561000000
H     3.588000000    -0.605000000     1.151000000
H     4.860000000     0.201000000     1.008000000
O     7.213000000    -0.931000000     2.002000000
H     6.938000000    -0.522000000     1.181000000
H     6.395000000    -1.201000000     2.420000000
O     5.032000000     5.106000000     6.381000000
H     5.032000000     5.898000000     5.843000000
H     4.710000000     4.419000000     5.796000000
O     6.487000000     6.901000000    -0.192000000
H     6.484000000     7.687000000    -0.738000000
H     6.378000000     7.229000000     0.701000000
O     3.351000000     3.518000000     4.615000000
H     3.177000000     3.930000000     3.769000000
H     3.553000000     2.607000000     4.401000000
O     6.321000000     3.998000000    -0.721000000
H     5.387000000     3.965000000    -0.516000000
H     6.614000000     4.839000000    -0.370000000
O     8.293000000     2.069000000     1.764000000
H     7.789000000     1.263000000     1.649000000
H     8.808000000     1.918000000     2.557000000
O     5.575000000     1.348000000    -0.053000000
H     6.443000000     1.460000000    -0.439000000
H     5.242000000     2.240000000     0.049000000
O     8.032000000     4.693000000     1.775000000
H     8.152000000     3.761000000     1.589000000
H     7.082000000     4.809000000     1.812000000
O     7.840000000     2.114000000    -1.700000000
H     8.666000000     2.429000000    -1.331000000
H     7.194000000     2.769000000    -1.435000000
O     8.685000000     5.106000000    -1.824000000
H     8.443000000     6.017000000    -1.657000000
H     7.918000000     4.601000000    -1.552000000
O     3.951000000     6.262000000    -1.165000000
H     3.566000000     5.503000000    -0.728000000
H     4.820000000     6.349000000    -0.774000000
O     2.485000000     6.626000000     2.807000000
H     2.478000000     5.745000000     2.433000000
H     1.863000000     7.119000000     2.271000000
O     2.084000000     4.524000000     6.729000000
H     2.089000000     3.774000000     7.324000000
H     2.593000000     4.233000000     5.972000000
O     5.333000000     5.236000000     1.988000000
H     4.542000000     4.705000000     1.893000000
H     5.134000000     5.835000000     2.708000000
O     2.386000000     8.878000000    -0.361000000
H     2.796000000     8.093000000    -0.725000000
H     2.986000000     9.164000000     0.328000000
