215
-1457.49350
C    -0.389000000    -1.729000000     4.981000000
H    -0.191000000    -2.753000000     4.675000000
C    -1.455000000    -1.033000000     4.425000000
C    -1.686000000     0.253000000     4.805000000
H    -2.447000000     0.813000000     4.267000000
C    -2.245000000    -1.700000000     3.361000000
O    -2.297000000    -3.141000000     3.378000000
H    -1.804000000    -1.495000000     2.374000000
O    -3.633000000    -1.281000000     3.394000000
C    -4.176000000    -0.882000000     2.161000000
C    -4.143000000     0.487000000     1.884000000
H    -3.860000000     1.183000000     2.669000000
C    -4.380000000     0.911000000     0.606000000
O    -4.272000000     2.238000000     0.304000000
C    -4.860000000     0.034000000    -0.355000000
C    -5.279000000     0.567000000    -1.785000000
H    -5.895000000    -0.098000000    -2.394000000
C    -3.992000000     0.713000000    -2.637000000
C    -3.623000000    -0.356000000    -3.551000000
H    -4.348000000    -1.162000000    -3.629000000
H    -5.737000000     1.558000000    -1.790000000
C    -5.044000000    -1.324000000    -0.078000000
H    -5.307000000    -2.031000000    -0.861000000
C    -4.590000000    -1.778000000     1.206000000
C    -4.576000000    -3.339000000     1.349000000
H    -5.131000000    -3.837000000     0.551000000
H    -4.991000000    -3.658000000     2.308000000
C    -3.090000000    -3.806000000     1.161000000
C    -2.756000000    -4.276000000    -0.125000000
H    -3.512000000    -4.237000000    -0.906000000
C    -2.100000000    -3.792000000     2.180000000
C    -0.782000000    -4.094000000     1.869000000
H    -0.035000000    -3.902000000     2.635000000
C    -0.458000000    -4.585000000     0.577000000
O     0.857000000    -4.724000000     0.289000000
C     1.618000000    -3.733000000    -0.446000000
C     2.975000000    -3.418000000     0.236000000
C     3.905000000    -2.663000000    -0.519000000
H     3.673000000    -2.340000000    -1.531000000
C     3.240000000    -3.641000000     1.617000000
H     2.478000000    -4.177000000     2.177000000
O     1.719000000    -4.155000000    -1.814000000
H     0.975000000    -2.842000000    -0.507000000
C    -1.463000000    -4.761000000    -0.388000000
C    -1.041000000    -5.232000000    -1.749000000
H    -1.904000000    -5.741000000    -2.184000000
H    -0.179000000    -5.901000000    -1.729000000
C    -0.594000000    -4.045000000    -2.632000000
C    -1.406000000    -3.390000000    -3.516000000
H    -2.463000000    -3.636000000    -3.576000000
C     0.771000000    -3.621000000    -2.672000000
C     1.263000000    -2.657000000    -3.478000000
H     2.283000000    -2.312000000    -3.324000000
C     0.395000000    -1.907000000    -4.222000000
O     0.886000000    -0.764000000    -4.796000000
C     0.582000000     0.583000000    -4.307000000
C     1.864000000     1.370000000    -4.535000000
C     3.148000000     0.794000000    -4.548000000
H     3.261000000    -0.285000000    -4.489000000
C     1.759000000     2.813000000    -4.424000000
H     0.822000000     3.218000000    -4.052000000
O    -0.525000000     1.195000000    -4.916000000
H     0.356000000     0.558000000    -3.231000000
C    -0.973000000    -2.277000000    -4.329000000
C    -1.923000000    -1.411000000    -5.126000000
H    -2.734000000    -2.089000000    -5.400000000
H    -1.428000000    -1.039000000    -6.025000000
C    -2.456000000    -0.231000000    -4.298000000
C    -1.724000000     0.990000000    -4.236000000
C    -2.129000000     2.067000000    -3.484000000
H    -1.558000000     2.985000000    -3.369000000
C    -3.204000000     1.900000000    -2.663000000
O    -3.521000000     2.944000000    -1.827000000
C    -3.169000000     2.745000000    -0.477000000
H    -2.410000000     1.949000000    -0.444000000
C    -2.557000000     3.932000000     0.155000000
C    -2.963000000     4.464000000     1.324000000
H    -3.902000000     4.167000000     1.783000000
C    -1.310000000     4.337000000    -0.432000000
H    -0.863000000     3.751000000    -1.230000000
C    -0.562000000     5.340000000     0.205000000
O     0.665000000     5.737000000    -0.177000000
C    -1.034000000     5.959000000     1.343000000
H    -0.441000000     6.736000000     1.820000000
C    -2.237000000     5.490000000     1.935000000
O    -2.648000000     5.917000000     3.148000000
C    -2.812000000     4.936000000     4.127000000
C    -1.764000000     4.156000000     4.508000000
H    -0.847000000     4.153000000     3.925000000
C    -4.060000000     4.935000000     4.830000000
H    -4.842000000     5.584000000     4.442000000
C    -4.218000000     3.993000000     5.803000000
H    -5.179000000     3.962000000     6.310000000
C    -3.178000000     3.076000000     6.157000000
H    -3.306000000     2.240000000     6.839000000
C    -1.905000000     3.238000000     5.532000000
O    -0.869000000     2.297000000     5.853000000
C    -0.872000000     0.897000000     5.671000000
C     0.184000000     0.123000000     6.256000000
H     0.854000000     0.587000000     6.976000000
C     0.491000000    -1.133000000     5.833000000
O     1.535000000    -1.830000000     6.484000000
C     2.172000000    -2.871000000     5.972000000
C     3.117000000    -2.695000000     4.898000000
H     3.096000000    -1.746000000     4.368000000
C     2.069000000    -4.081000000     6.605000000
H     1.267000000    -4.246000000     7.320000000
C     2.842000000    -5.144000000     6.183000000
H     2.780000000    -6.106000000     6.686000000
C     3.669000000    -5.017000000     5.121000000
H     4.274000000    -5.860000000     4.798000000
C     3.879000000    -3.745000000     4.530000000
O     4.778000000    -3.497000000     3.489000000
C     4.438000000    -3.228000000     2.180000000
C     5.349000000    -2.539000000     1.432000000
H     6.247000000    -2.137000000     1.894000000
C     5.094000000    -2.259000000     0.091000000
O     6.132000000    -1.640000000    -0.625000000
C     6.165000000    -1.571000000    -2.010000000
C     5.592000000    -0.474000000    -2.665000000
H     4.993000000     0.259000000    -2.132000000
C     6.760000000    -2.501000000    -2.833000000
H     6.983000000    -3.467000000    -2.388000000
C     7.056000000    -2.320000000    -4.164000000
H     7.486000000    -3.151000000    -4.718000000
C     6.695000000    -1.100000000    -4.814000000
H     6.970000000    -0.984000000    -5.859000000
C     5.850000000    -0.267000000    -4.063000000
O     5.556000000     0.967000000    -4.578000000
C     4.291000000     1.580000000    -4.568000000
C     4.136000000     2.968000000    -4.716000000
H     5.049000000     3.524000000    -4.916000000
C     2.895000000     3.639000000    -4.553000000
O     2.838000000     5.038000000    -4.449000000
C     1.912000000     5.692000000    -3.656000000
C     1.174000000     6.747000000    -4.146000000
H     1.162000000     6.965000000    -5.211000000
C     0.420000000     7.523000000    -3.278000000
H    -0.158000000     8.347000000    -3.687000000
C     0.246000000     7.190000000    -1.957000000
H    -0.553000000     7.683000000    -1.408000000
C     0.915000000     6.112000000    -1.462000000
C     1.793000000     5.323000000    -2.287000000
H     2.294000000     4.437000000    -1.907000000
C     0.443000000     1.864000000     2.177000000
H     0.277000000     2.099000000     3.225000000
C    -0.234000000     0.863000000     1.517000000
H    -1.038000000     0.387000000     2.071000000
C     0.042000000     0.430000000     0.234000000
H    -0.546000000    -0.435000000    -0.155000000
C     1.088000000     1.077000000    -0.457000000
H     1.393000000     0.735000000    -1.443000000
C     1.817000000     2.065000000     0.168000000
H     2.613000000     2.487000000    -0.440000000
C     1.459000000     2.502000000     1.486000000
C     2.131000000     3.636000000     2.170000000
O     3.143000000     4.108000000     1.676000000
O     1.782000000     4.000000000     3.263000000
O     6.007000000     7.274000000     2.111000000
H     5.206000000     7.079000000     1.624000000
H     5.838000000     6.942000000     2.993000000
O     5.218000000     4.038000000     3.891000000
H     4.941000000     3.136000000     4.051000000
H     4.807000000     4.271000000     3.059000000
O     2.105000000     7.538000000     3.129000000
H     3.005000000     7.552000000     3.456000000
H     2.017000000     6.684000000     2.707000000
O     7.954000000     3.664000000     0.495000000
H     8.216000000     2.744000000     0.457000000
H     6.998000000     3.643000000     0.440000000
O     6.202000000     4.069000000     6.596000000
H     6.957000000     4.643000000     6.465000000
H     5.772000000     4.038000000     5.742000000
O     2.709000000     1.978000000     4.955000000
H     2.167000000     2.342000000     5.655000000
H     2.579000000     2.575000000     4.218000000
O     5.303000000     6.608000000     4.721000000
H     6.156000000     6.520000000     5.147000000
H     5.079000000     5.718000000     4.449000000
O     5.358000000     0.999000000     4.128000000
H     5.557000000     0.325000000     4.778000000
H     4.432000000     1.197000000     4.264000000
O     2.977000000     9.605000000     0.889000000
H     2.192000000     9.665000000     0.345000000
H     2.924000000     8.739000000     1.293000000
O     1.509000000     4.216000000     6.047000000
H     1.231000000     4.227000000     5.131000000
H     1.687000000     5.134000000     6.254000000
O     5.295000000     3.272000000     0.222000000
H     4.515000000     3.633000000     0.643000000
H     5.229000000     2.328000000     0.367000000
O     2.693000000     7.018000000     6.169000000
H     2.234000000     7.604000000     5.567000000
H     3.612000000     7.080000000     5.909000000
O     2.564000000    -0.218000000     2.512000000
H     2.273000000     0.365000000     3.213000000
H     1.885000000    -0.143000000     1.841000000
O     0.723000000     2.975000000     8.781000000
H     0.740000000     3.490000000     7.974000000
H     1.587000000     2.566000000     8.823000000
O     3.911000000     6.662000000     0.366000000
H     4.083000000     6.489000000    -0.559000000
H     3.747000000     5.798000000     0.745000000
O     1.813000000     5.911000000     8.403000000
H     2.558000000     5.364000000     8.652000000
H     2.106000000     6.370000000     7.615000000
O    -0.004000000     9.166000000     2.924000000
H     0.471000000     9.996000000     2.969000000
H     0.671000000     8.497000000     3.046000000
O     4.611000000     0.637000000     0.825000000
H     3.863000000     0.219000000     1.250000000
H     5.060000000     1.101000000     1.533000000
O     5.535000000     5.212000000    -1.716000000
H     6.186000000     4.706000000    -2.201000000
H     5.163000000     4.589000000    -1.092000000
