215
-1447.09632
C    -0.662000000    -1.972000000     5.071000000
H    -0.319000000    -2.914000000     4.651000000
C    -1.698000000    -1.248000000     4.464000000
C    -2.050000000    -0.007000000     5.026000000
H    -2.875000000     0.506000000     4.538000000
C    -2.455000000    -1.770000000     3.289000000
O    -2.245000000    -3.126000000     3.213000000
H    -1.931000000    -1.462000000     2.372000000
O    -3.865000000    -1.431000000     3.265000000
C    -4.325000000    -0.961000000     2.033000000
C    -4.430000000     0.391000000     1.669000000
H    -4.103000000     1.147000000     2.379000000
C    -4.748000000     0.820000000     0.367000000
O    -4.443000000     2.107000000     0.081000000
C    -4.907000000    -0.111000000    -0.608000000
C    -5.172000000     0.354000000    -2.035000000
H    -5.679000000    -0.424000000    -2.610000000
C    -3.875000000     0.504000000    -2.786000000
C    -3.491000000    -0.525000000    -3.686000000
H    -3.985000000    -1.493000000    -3.639000000
H    -5.783000000     1.259000000    -2.026000000
C    -4.821000000    -1.461000000    -0.295000000
H    -5.051000000    -2.202000000    -1.057000000
C    -4.503000000    -1.883000000     0.975000000
C    -4.355000000    -3.345000000     1.201000000
H    -4.966000000    -4.020000000     0.597000000
H    -4.837000000    -3.546000000     2.160000000
C    -2.865000000    -3.817000000     0.976000000
C    -2.452000000    -4.246000000    -0.291000000
H    -3.123000000    -4.362000000    -1.138000000
C    -1.942000000    -3.768000000     2.036000000
C    -0.615000000    -4.080000000     1.830000000
H     0.184000000    -3.991000000     2.562000000
C    -0.184000000    -4.429000000     0.536000000
O     1.162000000    -4.634000000     0.344000000
C     1.838000000    -3.630000000    -0.531000000
C     3.104000000    -3.170000000     0.139000000
C     4.176000000    -2.467000000    -0.510000000
H     4.161000000    -2.224000000    -1.569000000
C     3.226000000    -3.242000000     1.557000000
H     2.367000000    -3.692000000     2.047000000
O     1.966000000    -4.116000000    -1.895000000
H     1.334000000    -2.654000000    -0.577000000
C    -1.135000000    -4.523000000    -0.521000000
C    -0.705000000    -5.050000000    -1.915000000
H    -1.532000000    -5.621000000    -2.344000000
H     0.138000000    -5.735000000    -1.803000000
C    -0.234000000    -3.922000000    -2.775000000
C    -1.100000000    -3.330000000    -3.653000000
H    -2.167000000    -3.533000000    -3.691000000
C     1.095000000    -3.566000000    -2.777000000
C     1.587000000    -2.498000000    -3.478000000
H     2.614000000    -2.145000000    -3.439000000
C     0.668000000    -1.813000000    -4.290000000
O     1.063000000    -0.717000000    -5.008000000
C     0.727000000     0.620000000    -4.520000000
C     1.959000000     1.565000000    -4.545000000
C     3.286000000     1.092000000    -4.487000000
H     3.506000000     0.036000000    -4.623000000
C     1.753000000     2.911000000    -4.584000000
H     0.725000000     3.262000000    -4.607000000
O    -0.458000000     1.158000000    -5.160000000
H     0.568000000     0.531000000    -3.436000000
C    -0.680000000    -2.248000000    -4.416000000
C    -1.753000000    -1.497000000    -5.245000000
H    -2.532000000    -2.116000000    -5.693000000
H    -1.290000000    -1.074000000    -6.139000000
C    -2.350000000    -0.294000000    -4.491000000
C    -1.670000000     0.933000000    -4.501000000
C    -2.095000000     1.892000000    -3.666000000
H    -1.443000000     2.755000000    -3.553000000
C    -3.170000000     1.732000000    -2.784000000
O    -3.466000000     2.785000000    -1.943000000
C    -3.180000000     2.428000000    -0.561000000
H    -2.541000000     1.533000000    -0.534000000
C    -2.544000000     3.579000000     0.186000000
C    -2.872000000     3.911000000     1.531000000
H    -3.652000000     3.395000000     2.085000000
C    -1.508000000     4.227000000    -0.423000000
H    -1.221000000     3.908000000    -1.421000000
C    -0.799000000     5.242000000     0.199000000
O     0.234000000     5.899000000    -0.383000000
C    -1.095000000     5.499000000     1.527000000
H    -0.323000000     6.141000000     1.945000000
C    -2.133000000     4.902000000     2.207000000
O    -2.394000000     5.186000000     3.524000000
C    -2.838000000     4.258000000     4.402000000
C    -2.025000000     3.366000000     5.112000000
H    -0.971000000     3.313000000     4.853000000
C    -4.156000000     4.230000000     4.743000000
H    -4.821000000     4.885000000     4.186000000
C    -4.587000000     3.606000000     5.875000000
H    -5.632000000     3.785000000     6.113000000
C    -3.797000000     2.784000000     6.702000000
H    -4.148000000     2.217000000     7.561000000
C    -2.524000000     2.634000000     6.191000000
O    -1.697000000     1.704000000     6.733000000
C    -1.358000000     0.523000000     6.094000000
C    -0.267000000    -0.203000000     6.620000000
H     0.398000000     0.239000000     7.357000000
C    -0.044000000    -1.523000000     6.214000000
O     1.037000000    -2.184000000     6.835000000
C     1.904000000    -2.940000000     6.135000000
C     2.768000000    -2.409000000     5.180000000
H     2.684000000    -1.342000000     4.992000000
C     1.780000000    -4.320000000     6.270000000
H     1.128000000    -4.739000000     7.032000000
C     2.661000000    -5.184000000     5.599000000
H     2.795000000    -6.219000000     5.904000000
C     3.621000000    -4.639000000     4.685000000
H     4.367000000    -5.234000000     4.166000000
C     3.603000000    -3.298000000     4.457000000
O     4.468000000    -2.763000000     3.545000000
C     4.315000000    -2.679000000     2.182000000
C     5.282000000    -2.086000000     1.504000000
H     6.144000000    -1.751000000     2.075000000
C     5.268000000    -1.944000000     0.136000000
O     6.146000000    -1.052000000    -0.405000000
C     6.461000000    -0.879000000    -1.711000000
C     5.710000000     0.006000000    -2.468000000
H     4.908000000     0.589000000    -2.023000000
C     7.601000000    -1.488000000    -2.142000000
H     8.072000000    -2.260000000    -1.538000000
C     8.165000000    -1.082000000    -3.361000000
H     9.089000000    -1.493000000    -3.761000000
C     7.479000000    -0.095000000    -4.122000000
H     7.870000000     0.236000000    -5.081000000
C     6.194000000     0.339000000    -3.763000000
O     5.718000000     1.457000000    -4.413000000
C     4.437000000     1.942000000    -4.463000000
C     4.226000000     3.302000000    -4.347000000
H     5.094000000     3.950000000    -4.437000000
C     2.875000000     3.799000000    -4.400000000
O     2.660000000     5.139000000    -4.359000000
C     1.624000000     5.778000000    -3.741000000
C     0.657000000     6.458000000    -4.508000000
H     0.727000000     6.510000000    -5.591000000
C    -0.504000000     6.873000000    -3.884000000
H    -1.218000000     7.400000000    -4.511000000
C    -0.664000000     6.658000000    -2.503000000
H    -1.526000000     6.998000000    -1.935000000
C     0.373000000     6.030000000    -1.774000000
C     1.515000000     5.643000000    -2.371000000
H     2.254000000     5.118000000    -1.771000000
C     0.926000000     2.575000000     1.714000000
H     0.640000000     3.221000000     2.540000000
C     0.159000000     1.460000000     1.339000000
H    -0.752000000     1.180000000     1.862000000
C     0.441000000     0.828000000     0.165000000
H    -0.223000000    -0.036000000    -0.046000000
C     1.494000000     1.166000000    -0.629000000
H     1.702000000     0.585000000    -1.524000000
C     2.304000000     2.267000000    -0.243000000
H     3.128000000     2.566000000    -0.885000000
C     2.010000000     2.992000000     0.904000000
C     2.949000000     4.105000000     1.327000000
O     3.774000000     4.551000000     0.564000000
O     2.839000000     4.526000000     2.424000000
O     4.970000000     9.379000000     1.082000000
H     5.771000000     9.215000000     0.584000000
H     4.708000000     8.517000000     1.405000000
O     4.590000000     3.580000000     4.093000000
H     4.895000000     4.348000000     4.575000000
H     4.007000000     3.934000000     3.422000000
O     4.032000000     7.224000000     3.109000000
H     3.328000000     7.803000000     3.401000000
H     3.582000000     6.511000000     2.655000000
O     8.108000000     2.840000000     1.166000000
H     8.559000000     2.041000000     1.437000000
H     7.231000000     2.548000000     0.917000000
O     1.577000000     2.107000000     5.108000000
H     1.941000000     1.998000000     5.986000000
H     1.690000000     3.037000000     4.915000000
O     6.647000000     5.282000000     1.930000000
H     6.530000000     4.421000000     1.527000000
H     5.756000000     5.591000000     2.098000000
O     5.688000000     0.364000000     4.783000000
H     6.387000000    -0.191000000     4.439000000
H     5.147000000     0.569000000     4.021000000
O     1.970000000     8.431000000     0.158000000
H     1.230000000     7.831000000     0.064000000
H     2.703000000     7.974000000    -0.253000000
O     7.053000000     2.788000000     5.389000000
H     6.406000000     3.068000000     4.742000000
H     6.880000000     1.855000000     5.512000000
O     1.378000000     4.899000000     4.754000000
H     1.966000000     5.118000000     4.031000000
H     0.703000000     5.576000000     4.727000000
O     5.697000000     2.434000000     0.312000000
H     4.995000000     3.078000000     0.214000000
H     5.330000000     1.766000000     0.891000000
O     3.404000000     4.686000000     7.128000000
H     3.117000000     4.965000000     6.259000000
H     4.359000000     4.753000000     7.098000000
O     2.117000000     0.115000000     3.347000000
H     2.065000000     0.740000000     4.071000000
H     1.426000000     0.390000000     2.744000000
O     8.159000000     7.147000000     0.407000000
H     8.559000000     7.454000000     1.221000000
H     7.317000000     6.782000000     0.677000000
O     7.002000000     3.463000000    -2.277000000
H     7.831000000     2.984000000    -2.260000000
H     6.512000000     3.118000000    -1.531000000
O     4.287000000     6.816000000    -0.376000000
H     4.978000000     6.676000000    -1.024000000
H     4.164000000     5.958000000     0.031000000
O     5.466000000     6.123000000     4.981000000
H     4.985000000     6.545000000     4.270000000
H     5.790000000     6.848000000     5.516000000
O     0.297000000     8.342000000     3.070000000
H     0.357000000     8.803000000     2.233000000
H     0.645000000     8.962000000     3.710000000
O     4.470000000     1.372000000     2.535000000
H     3.628000000     0.932000000     2.417000000
H     4.242000000     2.238000000     2.874000000
