215
-1465.47124
C    -0.471000000    -2.927000000     5.412000000
H    -0.415000000    -3.980000000     5.147000000
C    -1.320000000    -2.054000000     4.697000000
C    -1.273000000    -0.674000000     4.936000000
H    -1.902000000     0.116000000     4.535000000
C    -2.116000000    -2.491000000     3.485000000
O    -1.933000000    -3.863000000     3.176000000
H    -1.699000000    -1.921000000     2.642000000
O    -3.511000000    -2.114000000     3.500000000
C    -4.063000000    -1.601000000     2.329000000
C    -3.976000000    -0.192000000     2.188000000
H    -3.648000000     0.448000000     3.003000000
C    -4.268000000     0.412000000     0.993000000
O    -4.125000000     1.832000000     0.996000000
C    -4.726000000    -0.357000000    -0.056000000
C    -5.246000000     0.224000000    -1.362000000
H    -6.019000000    -0.414000000    -1.795000000
C    -4.198000000     0.600000000    -2.399000000
C    -3.763000000    -0.287000000    -3.352000000
H    -4.155000000    -1.301000000    -3.382000000
H    -5.788000000     1.133000000    -1.093000000
C    -4.837000000    -1.751000000     0.123000000
H    -5.046000000    -2.361000000    -0.753000000
C    -4.351000000    -2.380000000     1.213000000
C    -4.089000000    -3.880000000     1.368000000
H    -4.750000000    -4.519000000     0.779000000
H    -4.290000000    -4.246000000     2.377000000
C    -2.694000000    -4.334000000     0.930000000
C    -2.390000000    -4.695000000    -0.390000000
H    -3.171000000    -4.747000000    -1.145000000
C    -1.658000000    -4.189000000     1.909000000
C    -0.398000000    -4.379000000     1.536000000
H     0.317000000    -4.259000000     2.345000000
C    -0.074000000    -4.661000000     0.229000000
O     1.269000000    -4.648000000    -0.122000000
C     1.843000000    -3.474000000    -0.729000000
C     3.091000000    -3.023000000    -0.100000000
C     3.891000000    -2.130000000    -0.795000000
H     3.603000000    -1.840000000    -1.802000000
C     3.285000000    -3.269000000     1.244000000
H     2.565000000    -3.966000000     1.665000000
O     1.949000000    -3.730000000    -2.196000000
H     1.110000000    -2.656000000    -0.662000000
C    -1.066000000    -4.801000000    -0.754000000
C    -0.664000000    -4.930000000    -2.225000000
H    -1.417000000    -5.538000000    -2.730000000
H     0.236000000    -5.548000000    -2.244000000
C    -0.381000000    -3.593000000    -2.900000000
C    -1.398000000    -2.909000000    -3.582000000
H    -2.391000000    -3.341000000    -3.681000000
C     0.940000000    -3.110000000    -2.972000000
C     1.237000000    -1.990000000    -3.777000000
H     2.255000000    -1.609000000    -3.790000000
C     0.244000000    -1.323000000    -4.420000000
O     0.696000000    -0.207000000    -5.033000000
C     0.262000000     1.066000000    -4.391000000
C     1.399000000     2.150000000    -4.516000000
C     2.708000000     1.783000000    -4.411000000
H     2.930000000     0.794000000    -4.019000000
C     1.103000000     3.492000000    -4.769000000
H     0.049000000     3.739000000    -4.869000000
O    -0.993000000     1.489000000    -4.905000000
H     0.136000000     0.861000000    -3.318000000
C    -1.116000000    -1.800000000    -4.399000000
C    -2.254000000    -1.112000000    -5.108000000
H    -2.980000000    -1.899000000    -5.324000000
H    -1.911000000    -0.763000000    -6.084000000
C    -2.660000000    -0.052000000    -4.196000000
C    -2.077000000     1.197000000    -4.077000000
C    -2.521000000     2.159000000    -3.186000000
H    -1.991000000     3.107000000    -3.150000000
C    -3.546000000     1.867000000    -2.298000000
O    -3.718000000     2.714000000    -1.218000000
C    -3.182000000     2.397000000     0.083000000
H    -2.495000000     1.566000000    -0.137000000
C    -2.450000000     3.607000000     0.683000000
C    -2.384000000     3.931000000     2.020000000
H    -3.033000000     3.344000000     2.665000000
C    -1.675000000     4.400000000    -0.166000000
H    -1.749000000     4.226000000    -1.236000000
C    -0.814000000     5.482000000     0.329000000
O     0.028000000     6.194000000    -0.536000000
C    -0.782000000     5.697000000     1.728000000
H    -0.224000000     6.527000000     2.154000000
C    -1.549000000     4.932000000     2.526000000
O    -1.571000000     5.184000000     3.885000000
C    -1.739000000     4.192000000     4.801000000
C    -0.716000000     3.166000000     5.010000000
H     0.286000000     3.252000000     4.598000000
C    -2.895000000     4.207000000     5.558000000
H    -3.565000000     5.056000000     5.449000000
C    -3.133000000     3.141000000     6.463000000
H    -4.044000000     3.085000000     7.055000000
C    -2.260000000     2.098000000     6.560000000
H    -2.527000000     1.239000000     7.170000000
C    -1.057000000     2.102000000     5.886000000
O    -0.166000000     1.106000000     6.110000000
C    -0.400000000    -0.206000000     5.923000000
C     0.482000000    -1.105000000     6.579000000
H     1.264000000    -0.709000000     7.221000000
C     0.445000000    -2.460000000     6.359000000
O     1.482000000    -3.272000000     6.831000000
C     2.450000000    -3.688000000     5.968000000
C     2.967000000    -2.869000000     4.980000000
H     2.740000000    -1.812000000     4.871000000
C     2.912000000    -5.049000000     6.068000000
H     2.530000000    -5.771000000     6.786000000
C     3.920000000    -5.508000000     5.188000000
H     4.252000000    -6.542000000     5.217000000
C     4.449000000    -4.694000000     4.259000000
H     5.196000000    -5.146000000     3.612000000
C     4.003000000    -3.363000000     4.105000000
O     4.590000000    -2.572000000     3.184000000
C     4.374000000    -2.556000000     1.888000000
C     5.267000000    -1.776000000     1.146000000
H     6.182000000    -1.409000000     1.604000000
C     5.025000000    -1.597000000    -0.201000000
O     6.013000000    -0.883000000    -0.851000000
C     5.977000000    -0.561000000    -2.147000000
C     5.449000000     0.728000000    -2.559000000
H     5.111000000     1.511000000    -1.885000000
C     6.364000000    -1.483000000    -3.113000000
H     6.651000000    -2.497000000    -2.846000000
C     6.403000000    -1.068000000    -4.419000000
H     6.744000000    -1.849000000    -5.094000000
C     5.921000000     0.146000000    -4.894000000
H     5.859000000     0.313000000    -5.966000000
C     5.468000000     1.043000000    -3.966000000
O     5.084000000     2.336000000    -4.247000000
C     3.727000000     2.710000000    -4.466000000
C     3.454000000     4.065000000    -4.673000000
H     4.287000000     4.761000000    -4.725000000
C     2.112000000     4.470000000    -4.731000000
O     1.807000000     5.826000000    -4.874000000
C     0.805000000     6.419000000    -4.070000000
C    -0.305000000     7.088000000    -4.592000000
H    -0.413000000     7.182000000    -5.670000000
C    -1.351000000     7.490000000    -3.695000000
H    -2.184000000     8.017000000    -4.153000000
C    -1.290000000     7.171000000    -2.318000000
H    -2.142000000     7.374000000    -1.674000000
C    -0.174000000     6.534000000    -1.873000000
C     0.869000000     6.190000000    -2.685000000
H     1.719000000     5.645000000    -2.283000000
C     0.948000000     2.467000000     1.247000000
H     0.839000000     3.310000000     1.926000000
C     0.092000000     1.306000000     1.235000000
H    -0.705000000     1.223000000     1.969000000
C     0.285000000     0.275000000     0.305000000
H    -0.344000000    -0.651000000     0.260000000
C     1.299000000     0.423000000    -0.621000000
H     1.460000000    -0.336000000    -1.382000000
C     2.114000000     1.545000000    -0.613000000
H     2.855000000     1.612000000    -1.406000000
C     1.977000000     2.586000000     0.337000000
C     2.927000000     3.799000000     0.334000000
O     3.775000000     3.975000000    -0.537000000
O     2.876000000     4.601000000     1.213000000
O     5.386000000     5.709000000     1.375000000
H     5.965000000     4.962000000     1.224000000
H     4.503000000     5.347000000     1.292000000
O     4.538000000     8.122000000     1.721000000
H     3.640000000     7.832000000     1.562000000
H     5.050000000     7.313000000     1.745000000
O     8.645000000     2.610000000    -1.686000000
H     7.763000000     2.740000000    -1.339000000
H     9.216000000     2.671000000    -0.920000000
O     2.060000000     7.514000000     1.340000000
H     2.015000000     6.559000000     1.395000000
H     1.328000000     7.755000000     0.771000000
O     8.020000000     5.316000000     2.384000000
H     7.469000000     5.520000000     3.140000000
H     8.282000000     6.170000000     2.041000000
O     3.552000000     7.861000000    -3.072000000
H     3.635000000     7.042000000    -2.584000000
H     3.104000000     8.455000000    -2.469000000
O     6.842000000     3.740000000     5.134000000
H     6.104000000     3.213000000     4.825000000
H     6.549000000     4.645000000     5.029000000
O     4.351000000     1.445000000     3.116000000
H     3.728000000     0.819000000     3.485000000
H     4.011000000     2.302000000     3.372000000
O     6.446000000     3.518000000     0.334000000
H     6.437000000     2.895000000     1.061000000
H     5.563000000     3.468000000    -0.034000000
O     3.458000000     3.988000000     3.948000000
H     3.163000000     4.289000000     3.089000000
H     2.976000000     4.532000000     4.571000000
O     6.819000000     7.993000000    -0.341000000
H     6.644000000     7.052000000    -0.369000000
H     5.953000000     8.399000000    -0.367000000
O     6.099000000     6.076000000     4.278000000
H     5.181000000     5.944000000     4.039000000
H     6.098000000     6.878000000     4.800000000
O     7.495000000     5.585000000    -1.010000000
H     7.426000000     4.913000000    -0.332000000
H     8.138000000     5.236000000    -1.627000000
O     1.657000000     0.638000000     3.777000000
H     0.950000000     0.537000000     4.414000000
H     1.213000000     0.861000000     2.959000000
O     9.208000000     3.232000000     1.118000000
H     8.821000000     3.965000000     1.596000000
H     8.591000000     2.512000000     1.242000000
O     4.851000000     5.828000000    -1.950000000
H     5.675000000     5.780000000    -1.466000000
H     4.273000000     5.211000000    -1.501000000
O     5.939000000     7.043000000    -4.408000000
H     5.384000000     7.686000000    -3.967000000
H     5.767000000     6.221000000    -3.948000000
O     1.497000000     5.507000000     5.499000000
H     1.253000000     5.145000000     6.350000000
H     0.920000000     6.263000000     5.385000000
O     7.154000000     1.828000000     2.565000000
H     7.682000000     1.262000000     3.129000000
H     6.266000000     1.752000000     2.913000000
