215
-1463.26123
C     0.590000000    -2.232000000     4.930000000
H     1.106000000    -3.038000000     4.414000000
C    -0.688000000    -1.692000000     4.567000000
C    -1.179000000    -0.602000000     5.212000000
H    -2.177000000    -0.251000000     4.964000000
C    -1.469000000    -2.234000000     3.413000000
O    -1.179000000    -3.593000000     3.212000000
H    -1.061000000    -1.645000000     2.579000000
O    -2.942000000    -2.042000000     3.485000000
C    -3.663000000    -1.736000000     2.345000000
C    -3.984000000    -0.440000000     2.153000000
H    -3.725000000     0.227000000     2.972000000
C    -4.598000000    -0.001000000     0.988000000
O    -4.757000000     1.312000000     0.680000000
C    -4.857000000    -0.907000000    -0.083000000
C    -5.523000000    -0.445000000    -1.333000000
H    -6.229000000    -1.168000000    -1.747000000
C    -4.541000000     0.146000000    -2.322000000
C    -3.980000000    -0.632000000    -3.328000000
H    -4.345000000    -1.656000000    -3.361000000
H    -6.134000000     0.420000000    -1.068000000
C    -4.552000000    -2.289000000     0.095000000
H    -4.780000000    -3.056000000    -0.641000000
C    -3.957000000    -2.676000000     1.343000000
C    -3.562000000    -4.208000000     1.481000000
H    -4.264000000    -4.872000000     0.971000000
H    -3.743000000    -4.402000000     2.540000000
C    -2.067000000    -4.460000000     1.081000000
C    -1.833000000    -4.857000000    -0.254000000
H    -2.668000000    -5.123000000    -0.897000000
C    -1.010000000    -4.084000000     1.940000000
C     0.316000000    -4.301000000     1.531000000
H     1.162000000    -4.145000000     2.196000000
C     0.546000000    -4.644000000     0.174000000
O     1.830000000    -4.612000000    -0.324000000
C     2.143000000    -3.314000000    -0.941000000
C     3.478000000    -2.731000000    -0.456000000
C     4.185000000    -1.922000000    -1.327000000
H     3.817000000    -1.614000000    -2.303000000
C     3.968000000    -2.929000000     0.849000000
H     3.436000000    -3.645000000     1.470000000
O     2.182000000    -3.412000000    -2.395000000
H     1.363000000    -2.555000000    -0.780000000
C    -0.490000000    -4.821000000    -0.731000000
C    -0.355000000    -4.959000000    -2.250000000
H    -1.137000000    -5.633000000    -2.604000000
H     0.473000000    -5.598000000    -2.565000000
C    -0.178000000    -3.626000000    -3.044000000
C    -1.235000000    -3.063000000    -3.715000000
H    -2.203000000    -3.550000000    -3.633000000
C     1.062000000    -2.979000000    -3.106000000
C     1.235000000    -1.786000000    -3.823000000
H     2.187000000    -1.269000000    -3.731000000
C     0.153000000    -1.196000000    -4.457000000
O     0.305000000     0.011000000    -5.047000000
C    -0.045000000     1.210000000    -4.351000000
C     1.059000000     2.238000000    -4.615000000
C     2.332000000     1.809000000    -5.023000000
H     2.573000000     0.798000000    -5.341000000
C     0.836000000     3.567000000    -4.238000000
H    -0.086000000     3.858000000    -3.742000000
O    -1.427000000     1.648000000    -4.796000000
H    -0.081000000     1.001000000    -3.271000000
C    -1.131000000    -1.886000000    -4.422000000
C    -2.373000000    -1.285000000    -5.034000000
H    -3.001000000    -2.149000000    -5.262000000
H    -2.113000000    -0.874000000    -6.011000000
C    -2.947000000    -0.241000000    -4.133000000
C    -2.508000000     1.119000000    -4.054000000
C    -3.087000000     1.978000000    -3.138000000
H    -2.663000000     2.961000000    -2.948000000
C    -4.035000000     1.473000000    -2.217000000
O    -4.360000000     2.386000000    -1.295000000
C    -3.726000000     2.027000000    -0.043000000
H    -2.885000000     1.342000000    -0.222000000
C    -3.104000000     3.220000000     0.758000000
C    -3.532000000     3.522000000     2.031000000
H    -4.154000000     2.813000000     2.571000000
C    -2.174000000     4.034000000     0.150000000
H    -1.938000000     3.867000000    -0.898000000
C    -1.563000000     5.047000000     0.853000000
O    -0.621000000     5.914000000     0.306000000
C    -1.825000000     5.245000000     2.155000000
H    -1.382000000     6.085000000     2.685000000
C    -2.776000000     4.478000000     2.752000000
O    -3.218000000     4.683000000     4.040000000
C    -3.190000000     3.631000000     4.984000000
C    -2.009000000     3.003000000     5.386000000
H    -1.036000000     3.121000000     4.915000000
C    -4.366000000     3.272000000     5.649000000
H    -5.312000000     3.745000000     5.401000000
C    -4.345000000     2.377000000     6.690000000
H    -5.238000000     2.077000000     7.233000000
C    -3.246000000     1.621000000     6.976000000
H    -3.288000000     0.879000000     7.769000000
C    -2.073000000     1.944000000     6.329000000
O    -0.819000000     1.288000000     6.692000000
C    -0.380000000     0.047000000     6.188000000
C     0.941000000    -0.363000000     6.411000000
H     1.554000000     0.131000000     7.160000000
C     1.443000000    -1.558000000     5.877000000
O     2.657000000    -2.096000000     6.321000000
C     3.606000000    -2.740000000     5.586000000
C     3.967000000    -2.358000000     4.272000000
H     3.346000000    -1.703000000     3.665000000
C     4.271000000    -3.780000000     6.261000000
H     3.894000000    -4.113000000     7.225000000
C     5.322000000    -4.465000000     5.638000000
H     5.691000000    -5.403000000     6.045000000
C     5.773000000    -3.954000000     4.448000000
H     6.638000000    -4.489000000     4.063000000
C     5.086000000    -2.968000000     3.709000000
O     5.673000000    -2.424000000     2.541000000
C     5.131000000    -2.335000000     1.318000000
C     5.867000000    -1.518000000     0.451000000
H     6.708000000    -0.953000000     0.841000000
C     5.381000000    -1.314000000    -0.835000000
O     6.026000000    -0.362000000    -1.517000000
C     5.957000000    -0.063000000    -2.883000000
C     5.213000000     1.035000000    -3.353000000
H     4.726000000     1.668000000    -2.616000000
C     6.635000000    -0.936000000    -3.790000000
H     7.324000000    -1.698000000    -3.435000000
C     6.632000000    -0.636000000    -5.139000000
H     7.095000000    -1.305000000    -5.859000000
C     5.934000000     0.480000000    -5.579000000
H     6.052000000     0.720000000    -6.633000000
C     5.224000000     1.305000000    -4.769000000
O     4.623000000     2.443000000    -5.226000000
C     3.328000000     2.771000000    -5.012000000
C     3.137000000     4.074000000    -4.520000000
H     3.940000000     4.799000000    -4.411000000
C     1.838000000     4.539000000    -4.268000000
O     1.625000000     5.889000000    -3.975000000
C     0.590000000     6.174000000    -3.160000000
C    -0.573000000     6.657000000    -3.759000000
H    -0.617000000     6.822000000    -4.833000000
C    -1.678000000     6.924000000    -2.971000000
H    -2.519000000     7.443000000    -3.423000000
C    -1.680000000     6.636000000    -1.629000000
H    -2.551000000     6.810000000    -1.003000000
C    -0.532000000     6.185000000    -1.068000000
C     0.641000000     6.012000000    -1.775000000
H     1.488000000     5.638000000    -1.206000000
C     0.788000000     2.450000000     1.340000000
H     0.563000000     2.850000000     2.326000000
C     0.120000000     1.277000000     1.010000000
H    -0.652000000     0.904000000     1.678000000
C     0.373000000     0.635000000    -0.140000000
H    -0.238000000    -0.278000000    -0.302000000
C     1.322000000     1.122000000    -0.997000000
H     1.463000000     0.586000000    -1.932000000
C     1.974000000     2.345000000    -0.722000000
H     2.851000000     2.662000000    -1.280000000
C     1.732000000     3.029000000     0.475000000
C     2.596000000     4.208000000     0.953000000
O     3.386000000     4.699000000     0.153000000
O     2.556000000     4.576000000     2.122000000
O     5.459000000     5.822000000     1.550000000
H     4.795000000     5.223000000     1.210000000
H     4.968000000     6.604000000     1.805000000
O     2.045000000     6.958000000     3.628000000
H     2.584000000     6.415000000     3.053000000
H     1.184000000     6.540000000     3.614000000
O     6.835000000     4.912000000     3.728000000
H     6.489000000     5.138000000     4.591000000
H     6.168000000     5.220000000     3.114000000
O     3.156000000     8.890000000     1.328000000
H     2.204000000     8.887000000     1.422000000
H     3.329000000     8.261000000     0.627000000
O     8.341000000     2.837000000     2.474000000
H     8.813000000     2.764000000     3.304000000
H     7.682000000     3.513000000     2.632000000
O     3.577000000     1.475000000     4.611000000
H     3.376000000     1.190000000     3.720000000
H     3.216000000     2.360000000     4.667000000
O     5.242000000     3.904000000    -1.520000000
H     5.764000000     3.383000000    -0.909000000
H     4.543000000     4.275000000    -0.982000000
O     2.546000000     4.208000000     4.647000000
H     2.623000000     4.406000000     3.714000000
H     1.873000000     4.810000000     4.965000000
O     6.829000000     8.170000000     0.163000000
H     6.343000000     7.356000000     0.293000000
H     6.159000000     8.854000000     0.183000000
O     2.902000000     7.263000000     6.161000000
H     2.631000000     7.215000000     5.244000000
H     3.802000000     7.585000000     6.128000000
O     3.004000000     0.298000000     1.925000000
H     2.482000000     1.000000000     1.538000000
H     2.940000000    -0.423000000     1.298000000
O     3.320000000     3.816000000     7.123000000
H     3.000000000     3.905000000     6.226000000
H     3.624000000     2.911000000     7.180000000
O     8.161000000     5.030000000     0.673000000
H     8.088000000     4.162000000     0.275000000
H     7.270000000     5.242000000     0.950000000
O     6.560000000     0.520000000     3.855000000
H     6.241000000    -0.332000000     3.558000000
H     5.842000000     0.875000000     4.380000000
O     3.727000000     7.090000000    -0.530000000
H     3.470000000     6.170000000    -0.461000000
H     3.864000000     7.231000000    -1.466000000
O     5.916000000     6.041000000    -3.143000000
H     5.598000000     5.504000000    -2.417000000
H     6.334000000     5.418000000    -3.737000000
O     5.467000000     8.572000000     2.815000000
H     4.623000000     8.746000000     2.398000000
H     6.072000000     9.184000000     2.396000000
O     0.411000000     5.434000000     5.651000000
H    -0.456000000     5.230000000     6.003000000
H     0.495000000     6.382000000     5.757000000
O     6.830000000     2.263000000     0.368000000
H     7.230000000     2.257000000     1.237000000
H     7.389000000     1.690000000    -0.157000000
