215
-1468.50983
C    -4.513000000    -0.555000000    -2.102000000
H    -3.896000000     0.007000000    -2.799000000
C    -4.802000000    -0.036000000    -0.839000000
C    -5.601000000    -0.821000000     0.028000000
H    -5.748000000    -0.479000000     1.049000000
C    -4.175000000     1.302000000    -0.406000000
O    -4.284000000     2.451000000    -1.335000000
H    -3.086000000     1.156000000    -0.345000000
O    -4.700000000     1.792000000     0.821000000
C    -3.719000000     2.191000000     1.731000000
C    -3.291000000     1.185000000     2.612000000
H    -3.686000000     0.173000000     2.577000000
C    -2.354000000     1.438000000     3.627000000
O    -1.986000000     0.423000000     4.486000000
C    -1.764000000     2.693000000     3.671000000
C    -0.613000000     2.955000000     4.643000000
H    -0.583000000     4.015000000     4.903000000
C     0.720000000     2.418000000     4.104000000
C     1.536000000     3.323000000     3.342000000
H     1.160000000     4.340000000     3.274000000
H    -0.802000000     2.416000000     5.574000000
C    -2.107000000     3.634000000     2.681000000
H    -1.636000000     4.612000000     2.734000000
C    -3.066000000     3.388000000     1.690000000
C    -3.345000000     4.432000000     0.618000000
H    -3.118000000     5.398000000     1.073000000
H    -4.412000000     4.491000000     0.391000000
C    -2.627000000     4.131000000    -0.675000000
C    -1.404000000     4.720000000    -0.950000000
H    -1.053000000     5.461000000    -0.236000000
C    -3.106000000     3.132000000    -1.579000000
C    -2.349000000     2.736000000    -2.586000000
H    -2.709000000     1.962000000    -3.259000000
C    -1.134000000     3.237000000    -2.798000000
O    -0.393000000     2.734000000    -3.824000000
C     0.826000000     1.957000000    -3.625000000
C     0.890000000     0.875000000    -4.653000000
C     2.122000000     0.276000000    -4.946000000
H     3.019000000     0.689000000    -4.493000000
C    -0.227000000     0.333000000    -5.320000000
H    -1.152000000     0.866000000    -5.110000000
O     1.998000000     2.857000000    -3.588000000
H     0.730000000     1.396000000    -2.683000000
C    -0.639000000     4.310000000    -2.011000000
C     0.668000000     5.032000000    -2.219000000
H     0.640000000     5.946000000    -1.622000000
H     0.800000000     5.337000000    -3.259000000
C     1.815000000     4.258000000    -1.608000000
C     2.155000000     4.490000000    -0.274000000
H     1.573000000     5.244000000     0.250000000
C     2.452000000     3.271000000    -2.309000000
C     3.524000000     2.633000000    -1.763000000
H     4.027000000     1.769000000    -2.190000000
C     3.802000000     2.773000000    -0.414000000
O     4.641000000     1.860000000     0.102000000
C     4.135000000     0.762000000     0.917000000
C     4.748000000    -0.610000000     0.691000000
C     5.221000000    -0.890000000    -0.602000000
H     5.106000000    -0.175000000    -1.413000000
C     4.828000000    -1.655000000     1.649000000
H     4.411000000    -1.471000000     2.636000000
O     4.161000000     1.037000000     2.372000000
H     3.097000000     0.575000000     0.604000000
C     3.176000000     3.769000000     0.338000000
C     3.477000000     3.876000000     1.848000000
H     3.297000000     4.878000000     2.245000000
H     4.537000000     3.680000000     2.025000000
C     2.731000000     2.882000000     2.761000000
C     3.061000000     1.522000000     2.911000000
C     2.331000000     0.683000000     3.783000000
H     2.750000000    -0.299000000     3.986000000
C     1.160000000     1.155000000     4.417000000
O     0.341000000     0.204000000     4.992000000
C    -0.748000000    -0.234000000     4.189000000
H    -0.482000000    -0.035000000     3.140000000
C    -0.927000000    -1.735000000     4.370000000
C    -2.180000000    -2.378000000     4.273000000
H    -3.024000000    -1.752000000     3.993000000
C     0.212000000    -2.516000000     4.532000000
H     1.165000000    -1.996000000     4.579000000
C     0.191000000    -3.907000000     4.544000000
O     1.326000000    -4.642000000     4.788000000
C    -0.993000000    -4.561000000     4.351000000
H    -1.106000000    -5.640000000     4.293000000
C    -2.201000000    -3.786000000     4.230000000
O    -3.392000000    -4.389000000     3.933000000
C    -4.608000000    -3.776000000     3.642000000
C    -5.027000000    -3.661000000     2.301000000
H    -4.464000000    -4.084000000     1.473000000
C    -5.477000000    -3.288000000     4.630000000
H    -5.097000000    -3.239000000     5.647000000
C    -6.676000000    -2.707000000     4.331000000
H    -7.300000000    -2.200000000     5.062000000
C    -6.996000000    -2.584000000     3.005000000
H    -7.900000000    -2.100000000     2.644000000
C    -6.198000000    -3.093000000     1.981000000
O    -6.561000000    -2.977000000     0.638000000
C    -6.042000000    -2.068000000    -0.343000000
C    -5.885000000    -2.530000000    -1.630000000
H    -6.220000000    -3.553000000    -1.779000000
C    -5.115000000    -1.773000000    -2.543000000
O    -5.048000000    -2.253000000    -3.826000000
C    -4.441000000    -1.526000000    -4.840000000
C    -3.144000000    -1.764000000    -5.246000000
H    -2.601000000    -2.618000000    -4.848000000
C    -5.214000000    -0.687000000    -5.644000000
H    -6.273000000    -0.640000000    -5.403000000
C    -4.633000000     0.053000000    -6.639000000
H    -5.236000000     0.798000000    -7.152000000
C    -3.287000000    -0.084000000    -6.922000000
H    -2.749000000     0.509000000    -7.656000000
C    -2.564000000    -1.070000000    -6.281000000
O    -1.299000000    -1.331000000    -6.717000000
C    -0.111000000    -0.778000000    -6.159000000
C     1.113000000    -1.288000000    -6.481000000
H     1.384000000    -2.150000000    -7.085000000
C     2.248000000    -0.747000000    -5.853000000
O     3.511000000    -1.300000000    -6.218000000
C     4.541000000    -1.155000000    -5.406000000
C     4.703000000    -1.941000000    -4.208000000
H     3.996000000    -2.752000000    -4.052000000
C     5.417000000    -0.035000000    -5.621000000
H     5.189000000     0.630000000    -6.450000000
C     6.440000000     0.270000000    -4.726000000
H     6.929000000     1.219000000    -4.932000000
C     6.570000000    -0.531000000    -3.570000000
H     7.267000000    -0.252000000    -2.785000000
C     5.772000000    -1.650000000    -3.327000000
O     5.967000000    -2.473000000    -2.224000000
C     5.721000000    -2.158000000    -0.947000000
C     5.705000000    -3.139000000     0.024000000
H     5.853000000    -4.163000000    -0.310000000
C     5.285000000    -2.912000000     1.319000000
O     5.215000000    -4.008000000     2.121000000
C     4.556000000    -3.941000000     3.303000000
C     5.409000000    -3.675000000     4.400000000
H     6.457000000    -3.412000000     4.281000000
C     4.844000000    -3.708000000     5.639000000
H     5.487000000    -3.544000000     6.499000000
C     3.489000000    -4.130000000     5.819000000
H     3.138000000    -4.280000000     6.837000000
C     2.692000000    -4.317000000     4.737000000
C     3.219000000    -4.197000000     3.444000000
H     2.572000000    -4.234000000     2.571000000
C    -1.208000000    -2.635000000     1.050000000
H    -2.153000000    -3.084000000     1.344000000
C    -1.113000000    -1.266000000     0.983000000
H    -1.935000000    -0.591000000     1.206000000
C     0.066000000    -0.695000000     0.517000000
H     0.170000000     0.365000000     0.468000000
C     1.129000000    -1.496000000     0.048000000
H     1.991000000    -1.062000000    -0.453000000
C     1.018000000    -2.880000000     0.205000000
H     1.825000000    -3.549000000    -0.083000000
C    -0.138000000    -3.502000000     0.627000000
C    -0.306000000    -4.964000000     0.735000000
O     0.676000000    -5.647000000     0.616000000
O    -1.430000000    -5.468000000     0.696000000
O     4.460000000    -7.071000000     2.679000000
H     4.951000000    -6.249000000     2.677000000
H     3.691000000    -6.892000000     2.137000000
O     0.050000000    -7.448000000    -1.612000000
H    -0.690000000    -8.032000000    -1.448000000
H     0.256000000    -7.075000000    -0.755000000
O     0.630000000    -8.331000000     4.627000000
H     0.309000000    -8.199000000     3.735000000
H    -0.102000000    -8.070000000     5.186000000
O     2.258000000    -7.667000000     0.960000000
H     1.579000000    -6.995000000     0.901000000
H     1.879000000    -8.341000000     1.524000000
O     1.681000000    -4.891000000    -5.263000000
H     1.866000000    -5.085000000    -4.344000000
H     0.843000000    -5.323000000    -5.435000000
O     2.122000000    -5.457000000    -2.616000000
H     2.999000000    -5.566000000    -2.250000000
H     1.533000000    -5.745000000    -1.918000000
O    -2.405000000    -8.510000000    -1.161000000
H    -2.827000000    -8.107000000    -0.403000000
H    -3.017000000    -8.362000000    -1.882000000
O    -3.535000000    -9.879000000     2.511000000
H    -4.128000000    -9.835000000     3.261000000
H    -3.282000000    -8.970000000     2.353000000
O     3.747000000    -8.939000000    -1.007000000
H     3.308000000    -8.606000000    -0.225000000
H     3.059000000    -8.977000000    -1.671000000
O    -3.062000000    -5.165000000    -1.423000000
H    -2.556000000    -5.073000000    -0.616000000
H    -2.789000000    -4.424000000    -1.963000000
O    -2.067000000    -6.935000000    -3.707000000
H    -2.861000000    -6.421000000    -3.859000000
H    -1.948000000    -6.916000000    -2.757000000
O     4.398000000    -6.178000000    -1.158000000
H     4.074000000    -6.945000000    -0.686000000
H     5.298000000    -6.069000000    -0.850000000
O     0.765000000    -2.375000000    -3.306000000
H     0.954000000    -2.146000000    -4.216000000
H     1.209000000    -3.213000000    -3.172000000
O    -0.409000000    -7.870000000     2.074000000
H    -0.059000000    -7.060000000     1.705000000
H    -1.294000000    -7.934000000     1.713000000
O     1.762000000    -9.057000000    -2.846000000
H     1.312000000    -8.402000000    -2.312000000
H     1.113000000    -9.323000000    -3.496000000
O    -2.986000000    -7.320000000     1.445000000
H    -3.807000000    -7.036000000     1.847000000
H    -2.511000000    -6.507000000     1.271000000
O    -5.306000000    -6.407000000    -0.544000000
H    -5.411000000    -6.986000000    -1.299000000
H    -4.432000000    -6.034000000    -0.648000000
O    -0.403000000   -11.040000000    -0.316000000
H    -1.001000000   -10.373000000    -0.653000000
H    -0.959000000   -11.622000000     0.202000000
O    -1.837000000    -2.665000000    -2.268000000
H    -0.949000000    -2.497000000    -2.582000000
H    -1.789000000    -2.517000000    -1.323000000
