215
-1472.98159
C     1.161000000    -2.181000000     4.526000000
H     1.647000000    -2.788000000     3.765000000
C    -0.179000000    -2.027000000     4.450000000
C    -0.711000000    -1.127000000     5.400000000
H    -1.794000000    -1.096000000     5.306000000
C    -0.973000000    -2.604000000     3.284000000
O    -0.558000000    -3.947000000     3.004000000
H    -0.774000000    -1.961000000     2.414000000
O    -2.410000000    -2.602000000     3.536000000
C    -3.260000000    -2.334000000     2.528000000
C    -3.750000000    -1.052000000     2.510000000
H    -3.615000000    -0.421000000     3.385000000
C    -4.484000000    -0.613000000     1.404000000
O    -4.855000000     0.679000000     1.399000000
C    -4.680000000    -1.484000000     0.300000000
C    -5.480000000    -1.010000000    -0.900000000
H    -6.005000000    -1.862000000    -1.336000000
C    -4.633000000    -0.271000000    -1.957000000
C    -3.982000000    -1.004000000    -2.981000000
H    -4.235000000    -2.059000000    -3.042000000
H    -6.295000000    -0.415000000    -0.482000000
C    -4.171000000    -2.747000000     0.279000000
H    -4.198000000    -3.354000000    -0.622000000
C    -3.485000000    -3.173000000     1.394000000
C    -2.826000000    -4.499000000     1.296000000
H    -3.395000000    -5.139000000     0.619000000
H    -2.975000000    -5.034000000     2.236000000
C    -1.361000000    -4.560000000     0.798000000
C    -1.142000000    -4.838000000    -0.537000000
H    -1.987000000    -4.986000000    -1.205000000
C    -0.287000000    -4.330000000     1.665000000
C     1.020000000    -4.347000000     1.153000000
H     1.852000000    -4.255000000     1.847000000
C     1.216000000    -4.549000000    -0.230000000
O     2.546000000    -4.257000000    -0.609000000
C     2.742000000    -2.927000000    -1.175000000
C     4.073000000    -2.318000000    -0.821000000
C     4.595000000    -1.238000000    -1.468000000
H     4.117000000    -0.861000000    -2.368000000
C     4.667000000    -2.710000000     0.362000000
H     4.133000000    -3.373000000     1.037000000
O     2.611000000    -3.073000000    -2.613000000
H     1.978000000    -2.252000000    -0.762000000
C     0.158000000    -4.832000000    -1.066000000
C     0.238000000    -4.981000000    -2.578000000
H    -0.652000000    -5.519000000    -2.913000000
H     1.142000000    -5.514000000    -2.880000000
C     0.264000000    -3.603000000    -3.177000000
C    -0.907000000    -3.122000000    -3.740000000
H    -1.840000000    -3.678000000    -3.705000000
C     1.372000000    -2.793000000    -3.160000000
C     1.401000000    -1.598000000    -3.828000000
H     2.346000000    -1.060000000    -3.835000000
C     0.213000000    -1.104000000    -4.362000000
O     0.283000000     0.168000000    -4.931000000
C    -0.311000000     1.170000000    -4.024000000
C     0.578000000     2.473000000    -4.029000000
C     1.985000000     2.444000000    -4.302000000
H     2.441000000     1.489000000    -4.547000000
C     0.043000000     3.742000000    -3.784000000
H    -1.031000000     3.884000000    -3.697000000
O    -1.695000000     1.534000000    -4.403000000
H    -0.274000000     0.704000000    -3.028000000
C    -0.984000000    -1.854000000    -4.267000000
C    -2.347000000    -1.258000000    -4.838000000
H    -2.986000000    -2.125000000    -5.017000000
H    -2.271000000    -0.767000000    -5.810000000
C    -2.949000000    -0.417000000    -3.714000000
C    -2.732000000     0.954000000    -3.679000000
C    -3.434000000     1.719000000    -2.732000000
H    -3.228000000     2.784000000    -2.659000000
C    -4.311000000     1.066000000    -1.804000000
O    -4.901000000     1.761000000    -0.750000000
C    -4.112000000     1.563000000     0.509000000
H    -3.211000000     1.036000000     0.162000000
C    -3.656000000     2.855000000     1.112000000
C    -3.155000000     2.897000000     2.419000000
H    -3.338000000     2.024000000     3.039000000
C    -3.635000000     4.021000000     0.352000000
H    -3.993000000     3.987000000    -0.674000000
C    -2.934000000     5.135000000     0.857000000
O    -2.837000000     6.260000000     0.072000000
C    -2.470000000     5.113000000     2.149000000
H    -1.861000000     5.943000000     2.498000000
C    -2.624000000     4.061000000     2.972000000
O    -2.065000000     4.123000000     4.238000000
C    -2.314000000     3.221000000     5.278000000
C    -1.340000000     2.281000000     5.643000000
H    -0.414000000     2.203000000     5.080000000
C    -3.517000000     3.278000000     5.953000000
H    -4.280000000     4.011000000     5.703000000
C    -3.656000000     2.474000000     7.109000000
H    -4.561000000     2.530000000     7.710000000
C    -2.722000000     1.532000000     7.476000000
H    -2.961000000     0.995000000     8.390000000
C    -1.605000000     1.432000000     6.714000000
O    -0.678000000     0.527000000     7.182000000
C    -0.052000000    -0.369000000     6.339000000
C     1.331000000    -0.583000000     6.429000000
H     1.936000000    -0.159000000     7.227000000
C     1.912000000    -1.486000000     5.502000000
O     3.234000000    -1.623000000     5.497000000
C     3.914000000    -2.575000000     4.757000000
C     4.663000000    -2.197000000     3.685000000
H     4.701000000    -1.205000000     3.241000000
C     3.875000000    -3.871000000     5.183000000
H     3.261000000    -4.138000000     6.040000000
C     4.610000000    -4.846000000     4.572000000
H     4.563000000    -5.882000000     4.896000000
C     5.544000000    -4.464000000     3.565000000
H     6.037000000    -5.212000000     2.950000000
C     5.488000000    -3.132000000     3.122000000
O     6.377000000    -2.677000000     2.070000000
C     5.879000000    -2.244000000     0.828000000
C     6.477000000    -1.217000000     0.059000000
H     7.365000000    -0.659000000     0.342000000
C     5.807000000    -0.750000000    -1.059000000
O     6.348000000     0.437000000    -1.604000000
C     6.108000000     0.888000000    -2.852000000
C     5.183000000     1.905000000    -3.079000000
H     4.747000000     2.412000000    -2.223000000
C     6.862000000     0.342000000    -3.889000000
H     7.640000000    -0.376000000    -3.644000000
C     6.559000000     0.705000000    -5.211000000
H     7.152000000     0.308000000    -6.032000000
C     5.614000000     1.724000000    -5.467000000
H     5.392000000     2.008000000    -6.492000000
C     4.903000000     2.352000000    -4.435000000
O     4.132000000     3.500000000    -4.623000000
C     2.823000000     3.547000000    -4.275000000
C     2.232000000     4.732000000    -3.887000000
H     2.855000000     5.620000000    -3.813000000
C     0.858000000     4.880000000    -3.791000000
O     0.342000000     6.116000000    -3.550000000
C    -0.918000000     6.290000000    -3.068000000
C    -1.931000000     6.506000000    -3.934000000
H    -1.770000000     6.600000000    -5.005000000
C    -3.269000000     6.541000000    -3.574000000
H    -4.124000000     6.676000000    -4.231000000
C    -3.567000000     6.408000000    -2.204000000
H    -4.609000000     6.561000000    -1.936000000
C    -2.539000000     6.242000000    -1.259000000
C    -1.191000000     6.134000000    -1.691000000
H    -0.346000000     6.075000000    -1.009000000
C     0.250000000     1.953000000     1.275000000
H    -0.112000000     2.482000000     2.154000000
C    -0.513000000     0.806000000     0.851000000
H    -1.366000000     0.496000000     1.449000000
C    -0.057000000     0.055000000    -0.172000000
H    -0.702000000    -0.756000000    -0.444000000
C     1.147000000     0.407000000    -0.863000000
H     1.483000000    -0.209000000    -1.694000000
C     1.761000000     1.631000000    -0.585000000
H     2.619000000     1.950000000    -1.171000000
C     1.308000000     2.415000000     0.491000000
C     2.012000000     3.677000000     0.867000000
O     2.911000000     4.094000000     0.175000000
O     1.733000000     4.347000000     1.855000000
O     7.045000000     5.738000000    -0.899000000
H     6.220000000     5.391000000    -0.558000000
H     7.014000000     6.672000000    -0.695000000
O     1.887000000     2.835000000     3.973000000
H     1.798000000     3.344000000     3.168000000
H     2.690000000     2.329000000     3.849000000
O     1.994000000     9.671000000    -0.542000000
H     1.750000000     8.982000000     0.075000000
H     2.569000000     9.237000000    -1.172000000
O     5.933000000     1.655000000     2.859000000
H     5.296000000     1.300000000     3.479000000
H     6.758000000     1.669000000     3.345000000
O     1.582000000     7.019000000     0.673000000
H     2.079000000     6.735000000    -0.094000000
H     1.117000000     6.234000000     0.962000000
O    -1.047000000     8.506000000     1.480000000
H    -0.271000000     8.174000000     1.029000000
H    -0.729000000     8.766000000     2.345000000
O     8.006000000     2.253000000    -0.182000000
H     7.716000000     1.402000000    -0.510000000
H     7.195000000     2.732000000    -0.010000000
O    -0.187000000     8.748000000     3.977000000
H     0.361000000     9.460000000     4.308000000
H     0.386000000     7.981000000     3.987000000
O     1.843000000     3.255000000     6.931000000
H     1.036000000     3.732000000     6.738000000
H     2.129000000     2.915000000     6.083000000
O     4.119000000     6.085000000    -1.089000000
H     4.524000000     5.616000000    -1.819000000
H     3.525000000     5.446000000    -0.694000000
O     4.104000000     1.146000000     4.759000000
H     3.395000000     0.528000000     4.579000000
H     4.619000000     0.726000000     5.447000000
O     4.411000000     5.509000000     4.901000000
H     3.519000000     5.325000000     5.196000000
H     4.298000000     5.992000000     4.083000000
O     2.632000000    -0.318000000     2.100000000
H     2.382000000     0.360000000     1.472000000
H     3.171000000    -0.926000000     1.594000000
O     3.512000000     8.340000000    -2.366000000
H     4.342000000     8.785000000    -2.541000000
H     3.767000000     7.462000000    -2.083000000
O     0.008000000     5.486000000     6.015000000
H    -0.634000000     5.025000000     5.475000000
H    -0.452000000     5.660000000     6.837000000
O     4.056000000     6.767000000     2.305000000
H     3.181000000     6.698000000     2.686000000
H     4.057000000     6.133000000     1.588000000
O     1.599000000     6.224000000     3.690000000
H     0.865000000     6.001000000     4.263000000
H     1.739000000     5.437000000     3.163000000
O     5.356000000     2.940000000     0.191000000
H     5.399000000     2.411000000     0.987000000
H     4.462000000     3.282000000     0.179000000
O     5.462000000     9.088000000     1.676000000
H     5.195000000     8.177000000     1.798000000
H     4.757000000     9.476000000     1.157000000
