215
-1464.13107
C     1.969000000    -1.794000000     4.851000000
H     2.232000000    -2.840000000     4.712000000
C     0.722000000    -1.280000000     4.532000000
C     0.560000000     0.097000000     4.724000000
H    -0.384000000     0.561000000     4.447000000
C    -0.341000000    -2.000000000     3.674000000
O     0.079000000    -3.352000000     3.438000000
H    -0.366000000    -1.504000000     2.692000000
O    -1.661000000    -2.043000000     4.252000000
C    -2.696000000    -1.919000000     3.384000000
C    -3.213000000    -0.592000000     3.216000000
H    -2.802000000     0.221000000     3.810000000
C    -4.222000000    -0.294000000     2.353000000
O    -4.586000000     0.969000000     2.284000000
C    -4.679000000    -1.300000000     1.545000000
C    -5.669000000    -0.928000000     0.369000000
H    -6.392000000    -1.704000000     0.108000000
C    -4.909000000    -0.445000000    -0.877000000
C    -4.522000000    -1.347000000    -1.888000000
H    -4.960000000    -2.341000000    -1.895000000
H    -6.269000000    -0.111000000     0.776000000
C    -4.087000000    -2.553000000     1.570000000
H    -4.429000000    -3.386000000     0.962000000
C    -3.127000000    -2.906000000     2.521000000
C    -2.557000000    -4.309000000     2.477000000
H    -3.319000000    -5.031000000     2.178000000
H    -2.395000000    -4.575000000     3.524000000
C    -1.260000000    -4.490000000     1.753000000
C    -1.306000000    -4.909000000     0.454000000
H    -2.284000000    -5.075000000     0.008000000
C     0.016000000    -4.065000000     2.309000000
C     1.169000000    -4.092000000     1.491000000
H     2.067000000    -3.676000000     1.942000000
C     1.078000000    -4.533000000     0.209000000
O     2.252000000    -4.390000000    -0.491000000
C     2.311000000    -3.302000000    -1.393000000
C     3.684000000    -2.641000000    -1.386000000
C     4.281000000    -2.211000000    -2.621000000
H     3.684000000    -2.364000000    -3.516000000
C     4.366000000    -2.505000000    -0.194000000
H     3.949000000    -2.898000000     0.729000000
O     1.864000000    -3.729000000    -2.697000000
H     1.596000000    -2.528000000    -1.079000000
C    -0.175000000    -4.975000000    -0.367000000
C    -0.372000000    -5.269000000    -1.862000000
H    -1.298000000    -5.815000000    -2.056000000
H     0.406000000    -5.958000000    -2.198000000
C    -0.514000000    -3.984000000    -2.725000000
C    -1.840000000    -3.496000000    -2.943000000
H    -2.729000000    -4.035000000    -2.625000000
C     0.656000000    -3.299000000    -3.127000000
C     0.506000000    -2.113000000    -3.819000000
H     1.388000000    -1.707000000    -4.309000000
C    -0.755000000    -1.658000000    -4.100000000
O    -0.870000000    -0.486000000    -4.810000000
C    -1.160000000     0.665000000    -3.996000000
C    -0.176000000     1.812000000    -4.345000000
C     1.123000000     1.645000000    -4.924000000
H     1.409000000     0.621000000    -5.152000000
C    -0.482000000     3.149000000    -4.002000000
H    -1.390000000     3.403000000    -3.461000000
O    -2.524000000     1.024000000    -4.054000000
H    -0.960000000     0.503000000    -2.927000000
C    -1.894000000    -2.284000000    -3.633000000
C    -3.335000000    -1.858000000    -3.964000000
H    -3.990000000    -2.731000000    -3.984000000
H    -3.471000000    -1.489000000    -4.982000000
C    -3.704000000    -0.844000000    -2.899000000
C    -3.277000000     0.494000000    -2.976000000
C    -3.757000000     1.397000000    -2.026000000
H    -3.511000000     2.452000000    -2.115000000
C    -4.546000000     0.920000000    -0.941000000
O    -4.799000000     1.800000000     0.043000000
C    -3.950000000     1.754000000     1.251000000
H    -2.984000000     1.342000000     0.924000000
C    -3.595000000     3.195000000     1.693000000
C    -3.620000000     3.582000000     3.009000000
H    -3.954000000     2.941000000     3.821000000
C    -3.132000000     4.088000000     0.768000000
H    -3.248000000     3.883000000    -0.293000000
C    -2.760000000     5.387000000     1.178000000
O    -2.434000000     6.431000000     0.325000000
C    -2.569000000     5.714000000     2.516000000
H    -2.238000000     6.720000000     2.760000000
C    -2.993000000     4.750000000     3.468000000
O    -2.666000000     4.934000000     4.832000000
C    -2.029000000     3.919000000     5.504000000
C    -0.719000000     3.657000000     5.155000000
H    -0.251000000     4.088000000     4.273000000
C    -2.567000000     3.281000000     6.573000000
H    -3.621000000     3.373000000     6.820000000
C    -1.806000000     2.341000000     7.325000000
H    -2.289000000     1.895000000     8.190000000
C    -0.536000000     2.027000000     6.948000000
H     0.001000000     1.227000000     7.452000000
C     0.064000000     2.700000000     5.884000000
O     1.297000000     2.314000000     5.381000000
C     1.539000000     0.959000000     5.201000000
C     2.744000000     0.429000000     5.536000000
H     3.657000000     0.967000000     5.778000000
C     2.973000000    -0.940000000     5.330000000
O     4.244000000    -1.421000000     5.467000000
C     4.857000000    -2.117000000     4.394000000
C     5.172000000    -1.485000000     3.205000000
H     4.902000000    -0.438000000     3.096000000
C     5.172000000    -3.467000000     4.565000000
H     4.961000000    -3.932000000     5.525000000
C     5.718000000    -4.228000000     3.585000000
H     5.669000000    -5.306000000     3.720000000
C     6.012000000    -3.585000000     2.384000000
H     6.481000000    -4.134000000     1.571000000
C     5.872000000    -2.185000000     2.238000000
O     6.174000000    -1.516000000     1.073000000
C     5.597000000    -1.911000000    -0.128000000
C     6.109000000    -1.394000000    -1.271000000
H     7.077000000    -0.921000000    -1.123000000
C     5.462000000    -1.532000000    -2.515000000
O     6.078000000    -0.891000000    -3.630000000
C     5.478000000    -0.313000000    -4.700000000
C     4.554000000     0.780000000    -4.535000000
H     4.423000000     1.179000000    -3.532000000
C     5.909000000    -0.578000000    -6.027000000
H     6.695000000    -1.311000000    -6.186000000
C     5.307000000    -0.002000000    -7.092000000
H     5.633000000    -0.319000000    -8.080000000
C     4.455000000     1.038000000    -6.906000000
H     4.106000000     1.653000000    -7.732000000
C     4.046000000     1.448000000    -5.660000000
O     3.283000000     2.636000000    -5.577000000
C     2.027000000     2.714000000    -5.077000000
C     1.720000000     4.001000000    -4.633000000
H     2.405000000     4.841000000    -4.719000000
C     0.509000000     4.145000000    -4.061000000
O     0.261000000     5.431000000    -3.630000000
C    -0.986000000     5.884000000    -3.026000000
C    -2.098000000     6.058000000    -3.867000000
H    -2.036000000     5.829000000    -4.928000000
C    -3.292000000     6.430000000    -3.237000000
H    -4.149000000     6.804000000    -3.791000000
C    -3.427000000     6.634000000    -1.852000000
H    -4.324000000     6.896000000    -1.297000000
C    -2.311000000     6.307000000    -1.056000000
C    -1.105000000     5.948000000    -1.644000000
H    -0.310000000     5.656000000    -0.962000000
C     0.671000000     3.039000000     0.977000000
H     0.503000000     3.806000000     1.728000000
C    -0.077000000     1.859000000     1.034000000
H    -0.881000000     1.817000000     1.765000000
C    -0.046000000     0.915000000    -0.010000000
H    -0.725000000     0.069000000     0.055000000
C     0.841000000     1.102000000    -1.099000000
H     0.974000000     0.354000000    -1.877000000
C     1.620000000     2.259000000    -1.166000000
H     2.346000000     2.430000000    -1.957000000
C     1.479000000     3.231000000    -0.165000000
C     2.378000000     4.443000000    -0.085000000
O     3.431000000     4.317000000    -0.689000000
O     2.139000000     5.364000000     0.635000000
O     2.729000000     4.570000000     4.582000000
H     3.543000000     4.493000000     4.084000000
H     2.341000000     3.695000000     4.544000000
O     1.281000000     9.997000000     0.943000000
H     1.567000000    10.774000000     0.462000000
H     0.849000000     9.453000000     0.285000000
O     8.071000000     3.300000000     0.279000000
H     8.077000000     4.227000000     0.520000000
H     7.163000000     3.124000000     0.031000000
O     3.638000000     8.907000000     2.106000000
H     3.291000000     8.891000000     2.998000000
H     2.914000000     9.235000000     1.573000000
O     7.795000000     5.967000000     0.934000000
H     6.900000000     6.272000000     1.083000000
H     8.065000000     6.402000000     0.125000000
O     6.258000000     3.110000000    -2.825000000
H     5.981000000     2.911000000    -1.930000000
H     7.171000000     2.824000000    -2.862000000
O    -0.151000000     8.468000000    -0.665000000
H    -0.977000000     8.516000000    -1.146000000
H     0.511000000     8.320000000    -1.340000000
O     2.322000000     8.785000000    -3.562000000
H     2.571000000     8.348000000    -4.376000000
H     2.636000000     8.202000000    -2.871000000
O     0.449000000     6.913000000     1.861000000
H     0.121000000     7.462000000     1.149000000
H     1.271000000     6.554000000     1.528000000
O     4.940000000     6.848000000     0.502000000
H     4.251000000     6.189000000     0.588000000
H     4.483000000     7.685000000     0.577000000
O     2.959000000     7.242000000    -1.358000000
H     2.684000000     6.342000000    -1.183000000
H     3.879000000     7.166000000    -1.611000000
O     4.321000000     2.181000000     3.486000000
H     4.521000000     2.961000000     2.968000000
H     3.833000000     1.615000000     2.887000000
O     4.787000000     5.543000000    -2.694000000
H     5.315000000     4.782000000    -2.938000000
H     4.415000000     5.313000000    -1.843000000
O     3.536000000     0.852000000     0.885000000
H     2.612000000     0.906000000     0.639000000
H     3.659000000    -0.058000000     1.155000000
O     4.664000000     4.609000000     2.428000000
H     5.510000000     4.855000000     2.052000000
H     4.027000000     4.830000000     1.749000000
O     0.913000000     6.440000000     4.855000000
H     1.663000000     5.946000000     4.524000000
H     0.491000000     6.790000000     4.069000000
O     5.264000000     2.688000000    -0.287000000
H     4.839000000     1.895000000     0.038000000
H     4.550000000     3.315000000    -0.399000000
O     5.616000000     8.092000000    -3.149000000
H     6.389000000     7.528000000    -3.120000000
H     4.988000000     7.611000000    -3.689000000
O     6.165000000     7.761000000     3.564000000
H     5.941000000     7.596000000     4.480000000
H     5.321000000     7.879000000     3.128000000
