215
-1440.04206
C     1.951000000    -1.965000000     4.617000000
H     2.316000000    -2.776000000     3.992000000
C     0.511000000    -1.742000000     4.802000000
C     0.126000000    -0.815000000     5.749000000
H    -0.931000000    -0.669000000     5.954000000
C    -0.496000000    -2.289000000     3.836000000
O    -0.226000000    -3.681000000     3.588000000
H    -0.302000000    -1.600000000     3.001000000
O    -1.846000000    -2.126000000     4.252000000
C    -2.847000000    -1.700000000     3.324000000
C    -2.894000000    -0.358000000     3.076000000
H    -2.337000000     0.337000000     3.698000000
C    -3.750000000     0.127000000     2.066000000
O    -3.769000000     1.534000000     1.919000000
C    -4.400000000    -0.756000000     1.182000000
C    -5.321000000    -0.217000000     0.121000000
H    -6.016000000    -0.998000000    -0.192000000
C    -4.679000000     0.264000000    -1.159000000
C    -4.549000000    -0.611000000    -2.234000000
H    -5.068000000    -1.563000000    -2.150000000
H    -6.038000000     0.445000000     0.611000000
C    -4.220000000    -2.148000000     1.401000000
H    -4.695000000    -2.837000000     0.707000000
C    -3.441000000    -2.630000000     2.452000000
C    -3.022000000    -4.045000000     2.541000000
H    -3.818000000    -4.711000000     2.203000000
H    -2.770000000    -4.295000000     3.574000000
C    -1.702000000    -4.258000000     1.731000000
C    -1.809000000    -4.648000000     0.392000000
H    -2.781000000    -4.818000000    -0.065000000
C    -0.468000000    -4.122000000     2.271000000
C     0.695000000    -4.281000000     1.473000000
H     1.716000000    -4.196000000     1.838000000
C     0.549000000    -4.680000000     0.162000000
O     1.694000000    -4.786000000    -0.527000000
C     1.948000000    -3.613000000    -1.336000000
C     3.403000000    -3.192000000    -1.276000000
C     3.899000000    -2.441000000    -2.313000000
H     3.295000000    -2.350000000    -3.212000000
C     4.192000000    -3.314000000    -0.104000000
H     3.745000000    -3.787000000     0.767000000
O     1.532000000    -3.841000000    -2.712000000
H     1.362000000    -2.817000000    -0.853000000
C    -0.688000000    -4.800000000    -0.432000000
C    -0.832000000    -5.107000000    -1.955000000
H    -1.753000000    -5.692000000    -1.910000000
H    -0.061000000    -5.830000000    -2.233000000
C    -0.932000000    -3.892000000    -2.848000000
C    -2.081000000    -3.147000000    -3.190000000
H    -3.071000000    -3.510000000    -2.925000000
C     0.333000000    -3.328000000    -3.184000000
C     0.369000000    -2.123000000    -3.866000000
H     1.303000000    -1.617000000    -4.099000000
C    -0.784000000    -1.384000000    -4.096000000
O    -0.625000000    -0.212000000    -4.746000000
C    -1.009000000     1.081000000    -4.153000000
C    -0.042000000     2.252000000    -4.483000000
C     1.302000000     1.880000000    -4.851000000
H     1.516000000     0.825000000    -5.004000000
C    -0.315000000     3.615000000    -4.205000000
H    -1.329000000     3.860000000    -3.901000000
O    -2.393000000     1.432000000    -4.401000000
H    -0.867000000     0.926000000    -3.074000000
C    -2.040000000    -1.977000000    -3.943000000
C    -3.320000000    -1.281000000    -4.372000000
H    -4.167000000    -1.952000000    -4.529000000
H    -3.217000000    -0.745000000    -5.318000000
C    -3.764000000    -0.248000000    -3.286000000
C    -3.254000000     0.996000000    -3.407000000
C    -3.473000000     1.910000000    -2.407000000
H    -3.153000000     2.935000000    -2.577000000
C    -4.191000000     1.512000000    -1.283000000
O    -4.218000000     2.375000000    -0.231000000
C    -3.159000000     2.176000000     0.802000000
H    -2.424000000     1.440000000     0.443000000
C    -2.567000000     3.456000000     1.279000000
C    -1.860000000     3.430000000     2.509000000
H    -1.785000000     2.444000000     2.960000000
C    -2.583000000     4.601000000     0.517000000
H    -3.178000000     4.669000000    -0.390000000
C    -2.017000000     5.763000000     1.032000000
O    -1.954000000     6.864000000     0.207000000
C    -1.545000000     5.764000000     2.340000000
H    -1.458000000     6.761000000     2.765000000
C    -1.426000000     4.625000000     3.087000000
O    -0.803000000     4.617000000     4.337000000
C    -1.013000000     3.664000000     5.296000000
C    -0.035000000     2.851000000     5.740000000
H     0.986000000     2.937000000     5.378000000
C    -2.289000000     3.572000000     5.845000000
H    -2.997000000     4.273000000     5.411000000
C    -2.593000000     2.643000000     6.800000000
H    -3.598000000     2.587000000     7.211000000
C    -1.604000000     1.750000000     7.242000000
H    -1.823000000     0.995000000     7.992000000
C    -0.282000000     1.915000000     6.755000000
O     0.679000000     0.963000000     7.168000000
C     1.102000000    -0.197000000     6.500000000
C     2.457000000    -0.410000000     6.347000000
H     3.106000000     0.217000000     6.954000000
C     2.902000000    -1.374000000     5.448000000
O     4.264000000    -1.573000000     5.370000000
C     4.796000000    -2.515000000     4.488000000
C     5.242000000    -2.118000000     3.217000000
H     5.096000000    -1.080000000     2.930000000
C     4.809000000    -3.835000000     4.875000000
H     4.480000000    -4.138000000     5.866000000
C     5.218000000    -4.801000000     3.900000000
H     5.287000000    -5.848000000     4.181000000
C     5.859000000    -4.384000000     2.688000000
H     6.189000000    -5.185000000     2.032000000
C     5.803000000    -3.011000000     2.363000000
O     6.255000000    -2.607000000     1.068000000
C     5.430000000    -2.667000000    -0.073000000
C     5.943000000    -2.055000000    -1.176000000
H     6.944000000    -1.644000000    -1.073000000
C     5.229000000    -1.981000000    -2.306000000
O     5.769000000    -1.208000000    -3.357000000
C     5.136000000    -0.641000000    -4.394000000
C     4.643000000     0.647000000    -4.418000000
H     4.709000000     1.157000000    -3.460000000
C     4.848000000    -1.487000000    -5.490000000
H     5.179000000    -2.520000000    -5.562000000
C     4.265000000    -0.891000000    -6.648000000
H     4.142000000    -1.550000000    -7.503000000
C     3.868000000     0.446000000    -6.679000000
H     3.341000000     0.770000000    -7.573000000
C     4.041000000     1.226000000    -5.566000000
O     3.543000000     2.569000000    -5.421000000
C     2.264000000     2.882000000    -5.059000000
C     2.006000000     4.127000000    -4.552000000
H     2.749000000     4.895000000    -4.355000000
C     0.715000000     4.495000000    -4.125000000
O     0.484000000     5.767000000    -3.698000000
C    -0.682000000     6.204000000    -3.120000000
C    -1.517000000     6.929000000    -3.911000000
H    -1.311000000     7.028000000    -4.974000000
C    -2.588000000     7.584000000    -3.329000000
H    -3.363000000     8.144000000    -3.846000000
C    -2.818000000     7.496000000    -1.924000000
H    -3.541000000     8.171000000    -1.472000000
C    -1.883000000     6.843000000    -1.164000000
C    -0.822000000     6.120000000    -1.790000000
H    -0.186000000     5.510000000    -1.154000000
C     1.106000000     2.588000000     1.269000000
H     1.010000000     3.306000000     2.080000000
C     0.404000000     1.395000000     1.269000000
H    -0.141000000     0.920000000     2.081000000
C     0.347000000     0.696000000     0.060000000
H    -0.241000000    -0.201000000    -0.103000000
C     0.990000000     1.126000000    -1.119000000
H     0.779000000     0.616000000    -2.055000000
C     1.666000000     2.339000000    -1.098000000
H     2.089000000     2.738000000    -2.016000000
C     1.831000000     3.046000000     0.074000000
C     2.409000000     4.422000000     0.004000000
O     3.105000000     4.722000000    -0.893000000
O     2.338000000     5.216000000     0.946000000
O     3.534000000     3.854000000     3.171000000
H     2.848000000     3.866000000     2.504000000
H     4.337000000     3.667000000     2.685000000
O     5.707000000     4.057000000     1.559000000
H     5.822000000     4.737000000     0.895000000
H     6.599000000     3.806000000     1.800000000
O     7.329000000     7.016000000     1.363000000
H     7.081000000     7.503000000     0.578000000
H     6.787000000     7.390000000     2.058000000
O     2.353000000    10.314000000    -0.922000000
H     2.777000000    10.603000000    -1.730000000
H     2.629000000     9.404000000    -0.819000000
O     6.645000000     1.167000000     1.413000000
H     6.686000000     1.173000000     2.369000000
H     5.790000000     0.788000000     1.212000000
O     3.716000000     7.385000000    -4.091000000
H     4.018000000     7.392000000    -5.000000000
H     4.157000000     6.631000000    -3.699000000
O     3.966000000     2.858000000     5.715000000
H     3.883000000     3.209000000     4.829000000
H     3.130000000     3.064000000     6.134000000
O     0.575000000     7.491000000     1.268000000
H    -0.157000000     7.282000000     0.688000000
H     1.222000000     6.808000000     1.094000000
O     5.705000000     8.776000000    -1.162000000
H     4.815000000     8.591000000    -1.463000000
H     5.587000000     9.325000000    -0.387000000
O     2.990000000     7.587000000    -1.134000000
H     3.201000000     7.419000000    -2.053000000
H     2.964000000     6.718000000    -0.732000000
O    -0.399000000     8.623000000     3.852000000
H    -0.120000000     8.378000000     2.970000000
H     0.417000000     8.711000000     4.345000000
O     3.844000000     0.244000000     0.482000000
H     3.410000000     0.858000000    -0.110000000
H     3.921000000    -0.564000000    -0.026000000
O     7.183000000     5.589000000    -4.471000000
H     6.605000000     5.622000000    -3.709000000
H     6.643000000     5.905000000    -5.195000000
O     4.972000000     5.284000000    -2.850000000
H     4.171000000     5.185000000    -2.337000000
H     5.496000000     4.514000000    -2.628000000
O     4.037000000     7.132000000     1.376000000
H     3.892000000     7.637000000     0.576000000
H     3.612000000     6.290000000     1.209000000
O     1.039000000    10.213000000     1.348000000
H     1.601000000    10.309000000     0.580000000
H     0.940000000     9.267000000     1.456000000
O     3.176000000     6.506000000     3.849000000
H     3.052000000     5.557000000     3.834000000
H     3.336000000     6.741000000     2.935000000
O     5.097000000     2.532000000    -1.283000000
H     5.537000000     2.337000000    -0.456000000
H     4.460000000     3.211000000    -1.062000000
O     5.979000000     8.119000000     3.321000000
H     5.675000000     8.170000000     4.228000000
H     5.182000000     7.992000000     2.808000000
