215
-1460.65748
C     1.407000000    -2.097000000     5.136000000
H     1.460000000    -3.093000000     4.703000000
C     0.160000000    -1.498000000     4.817000000
C    -0.007000000    -0.154000000     5.267000000
H    -0.974000000     0.257000000     4.990000000
C    -0.853000000    -2.194000000     3.864000000
O    -0.644000000    -3.610000000     3.691000000
H    -0.592000000    -1.772000000     2.883000000
O    -2.231000000    -1.981000000     4.238000000
C    -3.069000000    -1.633000000     3.199000000
C    -3.441000000    -0.308000000     3.051000000
H    -3.074000000     0.441000000     3.748000000
C    -4.229000000     0.109000000     1.980000000
O    -4.421000000     1.455000000     1.770000000
C    -4.709000000    -0.812000000     0.993000000
C    -5.457000000    -0.293000000    -0.169000000
H    -6.149000000    -1.035000000    -0.573000000
C    -4.641000000     0.123000000    -1.369000000
C    -4.378000000    -0.808000000    -2.354000000
H    -4.756000000    -1.827000000    -2.330000000
H    -6.098000000     0.452000000     0.306000000
C    -4.440000000    -2.156000000     1.219000000
H    -4.765000000    -2.915000000     0.511000000
C    -3.560000000    -2.571000000     2.240000000
C    -3.240000000    -4.033000000     2.337000000
H    -3.992000000    -4.714000000     1.935000000
H    -3.199000000    -4.394000000     3.367000000
C    -1.898000000    -4.266000000     1.645000000
C    -1.879000000    -4.704000000     0.327000000
H    -2.784000000    -4.732000000    -0.275000000
C    -0.700000000    -4.064000000     2.355000000
C     0.516000000    -4.129000000     1.695000000
H     1.420000000    -3.891000000     2.250000000
C     0.512000000    -4.406000000     0.321000000
O     1.674000000    -4.443000000    -0.384000000
C     1.953000000    -3.328000000    -1.264000000
C     3.306000000    -2.634000000    -1.013000000
C     3.862000000    -1.890000000    -2.023000000
H     3.482000000    -1.894000000    -3.041000000
C     3.954000000    -2.549000000     0.202000000
H     3.494000000    -3.063000000     1.042000000
O     1.719000000    -3.726000000    -2.634000000
H     1.214000000    -2.561000000    -0.988000000
C    -0.673000000    -4.758000000    -0.355000000
C    -0.711000000    -5.151000000    -1.827000000
H    -1.600000000    -5.773000000    -1.948000000
H     0.065000000    -5.874000000    -2.087000000
C    -0.672000000    -3.969000000    -2.822000000
C    -1.885000000    -3.411000000    -3.297000000
H    -2.738000000    -3.910000000    -2.844000000
C     0.537000000    -3.359000000    -3.233000000
C     0.551000000    -2.156000000    -3.966000000
H     1.493000000    -1.647000000    -4.154000000
C    -0.659000000    -1.658000000    -4.402000000
O    -0.523000000    -0.461000000    -5.001000000
C    -0.714000000     0.821000000    -4.274000000
C     0.276000000     1.844000000    -4.818000000
C     1.419000000     1.524000000    -5.547000000
H     1.632000000     0.513000000    -5.888000000
C     0.110000000     3.135000000    -4.401000000
H    -0.732000000     3.472000000    -3.802000000
O    -2.112000000     1.221000000    -4.329000000
H    -0.448000000     0.677000000    -3.216000000
C    -1.908000000    -2.284000000    -4.114000000
C    -3.254000000    -1.600000000    -4.360000000
H    -3.957000000    -2.436000000    -4.374000000
H    -3.304000000    -1.193000000    -5.371000000
C    -3.571000000    -0.481000000    -3.422000000
C    -2.988000000     0.802000000    -3.439000000
C    -3.309000000     1.739000000    -2.445000000
H    -2.825000000     2.711000000    -2.485000000
C    -4.215000000     1.445000000    -1.454000000
O    -4.347000000     2.345000000    -0.464000000
C    -3.618000000     2.158000000     0.738000000
H    -2.842000000     1.444000000     0.424000000
C    -2.929000000     3.351000000     1.313000000
C    -3.110000000     3.714000000     2.677000000
H    -3.766000000     3.082000000     3.271000000
C    -2.023000000     4.023000000     0.519000000
H    -1.769000000     3.747000000    -0.501000000
C    -1.313000000     5.147000000     1.088000000
O    -0.483000000     6.064000000     0.350000000
C    -1.419000000     5.447000000     2.463000000
H    -0.785000000     6.240000000     2.850000000
C    -2.303000000     4.712000000     3.219000000
O    -2.394000000     5.075000000     4.538000000
C    -2.046000000     4.180000000     5.525000000
C    -0.818000000     3.521000000     5.556000000
H    -0.113000000     3.701000000     4.748000000
C    -2.947000000     3.838000000     6.508000000
H    -3.933000000     4.282000000     6.401000000
C    -2.680000000     2.877000000     7.446000000
H    -3.443000000     2.606000000     8.171000000
C    -1.503000000     2.252000000     7.431000000
H    -1.264000000     1.466000000     8.143000000
C    -0.479000000     2.553000000     6.491000000
O     0.745000000     1.849000000     6.462000000
C     0.986000000     0.594000000     5.890000000
C     2.197000000    -0.014000000     6.170000000
H     2.963000000     0.464000000     6.775000000
C     2.429000000    -1.332000000     5.723000000
O     3.694000000    -1.872000000     5.951000000
C     4.246000000    -2.518000000     4.866000000
C     4.694000000    -1.730000000     3.765000000
H     4.501000000    -0.665000000     3.665000000
C     4.458000000    -3.856000000     4.894000000
H     4.015000000    -4.422000000     5.710000000
C     5.076000000    -4.548000000     3.851000000
H     5.162000000    -5.631000000     3.857000000
C     5.551000000    -3.832000000     2.770000000
H     6.089000000    -4.393000000     2.010000000
C     5.329000000    -2.433000000     2.739000000
O     5.805000000    -1.843000000     1.645000000
C     5.166000000    -1.881000000     0.430000000
C     5.715000000    -1.193000000    -0.653000000
H     6.629000000    -0.615000000    -0.543000000
C     5.021000000    -1.156000000    -1.855000000
O     5.652000000    -0.590000000    -2.992000000
C     5.129000000    -0.423000000    -4.234000000
C     4.476000000     0.726000000    -4.654000000
H     4.218000000     1.558000000    -4.003000000
C     5.414000000    -1.413000000    -5.169000000
H     5.933000000    -2.336000000    -4.925000000
C     5.114000000    -1.284000000    -6.505000000
H     5.478000000    -2.024000000    -7.213000000
C     4.572000000    -0.053000000    -6.931000000
H     4.344000000     0.096000000    -7.983000000
C     4.214000000     0.924000000    -6.040000000
O     3.585000000     2.089000000    -6.429000000
C     2.361000000     2.459000000    -5.874000000
C     2.241000000     3.737000000    -5.340000000
H     3.137000000     4.347000000    -5.411000000
C     1.181000000     4.132000000    -4.573000000
O     1.209000000     5.322000000    -4.012000000
C     0.248000000     5.786000000    -3.202000000
C    -0.965000000     6.234000000    -3.839000000
H    -0.991000000     6.206000000    -4.926000000
C    -1.918000000     6.833000000    -2.955000000
H    -2.712000000     7.487000000    -3.305000000
C    -1.795000000     6.707000000    -1.577000000
H    -2.477000000     7.176000000    -0.873000000
C    -0.683000000     6.073000000    -1.022000000
C     0.380000000     5.675000000    -1.802000000
H     1.245000000     5.277000000    -1.276000000
C     0.413000000     2.233000000     1.692000000
H     0.237000000     2.769000000     2.621000000
C    -0.244000000     0.988000000     1.412000000
H    -0.945000000     0.507000000     2.089000000
C    -0.051000000     0.451000000     0.142000000
H    -0.544000000    -0.499000000    -0.192000000
C     0.942000000     0.911000000    -0.701000000
H     1.193000000     0.481000000    -1.667000000
C     1.616000000     2.115000000    -0.413000000
H     2.521000000     2.413000000    -0.937000000
C     1.264000000     2.857000000     0.736000000
C     2.046000000     4.086000000     1.104000000
O     3.006000000     4.478000000     0.429000000
O     1.901000000     4.596000000     2.247000000
O     2.952000000     2.306000000     3.436000000
H     2.452000000     3.109000000     3.290000000
H     3.748000000     2.597000000     3.880000000
O     6.528000000     5.008000000     1.785000000
H     5.723000000     5.247000000     2.244000000
H     6.936000000     4.348000000     2.346000000
O     4.700000000     8.033000000     2.315000000
H     4.373000000     7.153000000     2.505000000
H     4.725000000     8.078000000     1.359000000
O     0.886000000     9.836000000    -0.155000000
H     1.412000000     9.042000000    -0.249000000
H     0.816000000    10.184000000    -1.044000000
O     4.766000000     1.118000000     1.446000000
H     4.274000000     1.856000000     1.807000000
H     4.096000000     0.474000000     1.214000000
O     4.024000000     7.658000000    -2.580000000
H     3.698000000     8.410000000    -3.074000000
H     4.294000000     7.030000000    -3.250000000
O     1.500000000     7.320000000     2.545000000
H     2.057000000     7.641000000     1.836000000
H     1.207000000     6.458000000     2.247000000
O     6.109000000     8.123000000    -0.836000000
H     6.700000000     7.460000000    -1.194000000
H     5.291000000     8.001000000    -1.318000000
O     2.824000000     7.226000000     0.008000000
H     3.345000000     7.297000000    -0.792000000
H     2.870000000     6.299000000     0.242000000
O     2.416000000    -0.192000000     1.912000000
H     2.391000000     0.327000000     2.716000000
H     1.826000000     0.266000000     1.313000000
O     5.722000000     4.245000000    -3.450000000
H     5.403000000     4.460000000    -2.573000000
H     5.276000000     4.867000000    -4.025000000
O     5.122000000     3.373000000     4.929000000
H     6.068000000     3.256000000     5.021000000
H     4.786000000     3.323000000     5.824000000
O     5.384000000     4.779000000    -0.695000000
H     4.465000000     4.576000000    -0.521000000
H     5.667000000     5.282000000     0.069000000
O     8.208000000     1.402000000     1.531000000
H     8.337000000     0.871000000     2.317000000
H     7.286000000     1.277000000     1.306000000
O     4.175000000     5.614000000     3.202000000
H     4.495000000     4.938000000     3.799000000
H     3.393000000     5.231000000     2.804000000
O     0.066000000     9.736000000     2.602000000
H     0.330000000     9.782000000     1.683000000
H     0.293000000     8.846000000     2.872000000
O     1.747000000     5.745000000     5.553000000
H     1.801000000     5.960000000     4.622000000
H     2.615000000     5.402000000     5.770000000
O     6.480000000     2.216000000    -0.485000000
H     6.387000000     3.163000000    -0.381000000
H     5.645000000     1.858000000    -0.182000000
O     3.393000000    10.527000000     2.363000000
H     3.548000000     9.618000000     2.618000000
H     3.208000000    10.979000000     3.187000000
