215
-1472.76223
C    -5.160000000    -0.627000000    -2.160000000
H    -5.058000000     0.209000000    -2.848000000
C    -4.956000000    -0.368000000    -0.838000000
C    -5.120000000    -1.412000000     0.029000000
H    -4.899000000    -1.272000000     1.083000000
C    -4.260000000     0.901000000    -0.311000000
O    -4.445000000     1.984000000    -1.245000000
H    -3.176000000     0.712000000    -0.341000000
O    -4.687000000     1.286000000     1.005000000
C    -3.734000000     1.671000000     1.877000000
C    -3.279000000     0.768000000     2.776000000
H    -3.649000000    -0.251000000     2.703000000
C    -2.269000000     1.142000000     3.639000000
O    -1.641000000     0.142000000     4.398000000
C    -1.845000000     2.461000000     3.726000000
C    -0.680000000     2.871000000     4.593000000
H    -0.750000000     3.953000000     4.724000000
C     0.702000000     2.545000000     4.007000000
C     1.284000000     3.397000000     3.119000000
H     0.831000000     4.337000000     2.813000000
H    -0.821000000     2.364000000     5.550000000
C    -2.330000000     3.403000000     2.860000000
H    -1.892000000     4.398000000     2.854000000
C    -3.204000000     2.950000000     1.821000000
C    -3.679000000     3.979000000     0.794000000
H    -3.432000000     4.913000000     1.303000000
H    -4.761000000     3.991000000     0.645000000
C    -3.021000000     3.824000000    -0.572000000
C    -1.959000000     4.676000000    -0.936000000
H    -1.541000000     5.320000000    -0.167000000
C    -3.438000000     2.892000000    -1.513000000
C    -2.767000000     2.753000000    -2.732000000
H    -3.123000000     2.029000000    -3.460000000
C    -1.601000000     3.477000000    -2.972000000
O    -0.805000000     3.086000000    -4.077000000
C     0.267000000     2.205000000    -3.781000000
C     0.423000000     1.105000000    -4.928000000
C     1.622000000     0.350000000    -4.941000000
H     2.427000000     0.622000000    -4.263000000
C    -0.684000000     0.702000000    -5.614000000
H    -1.607000000     1.241000000    -5.418000000
O     1.451000000     3.015000000    -3.586000000
H     0.041000000     1.628000000    -2.872000000
C    -1.139000000     4.470000000    -2.050000000
C     0.215000000     5.161000000    -2.204000000
H     0.237000000     6.146000000    -1.734000000
H     0.379000000     5.287000000    -3.276000000
C     1.320000000     4.312000000    -1.594000000
C     1.799000000     4.696000000    -0.334000000
H     1.393000000     5.578000000     0.156000000
C     1.874000000     3.211000000    -2.280000000
C     3.049000000     2.576000000    -1.816000000
H     3.634000000     1.911000000    -2.446000000
C     3.402000000     2.891000000    -0.524000000
O     4.443000000     2.042000000    -0.049000000
C     4.015000000     0.942000000     0.914000000
C     4.594000000    -0.416000000     0.709000000
C     4.789000000    -0.891000000    -0.548000000
H     4.528000000    -0.273000000    -1.404000000
C     5.069000000    -1.174000000     1.811000000
H     4.929000000    -0.834000000     2.834000000
O     4.304000000     1.451000000     2.191000000
H     2.927000000     0.799000000     0.847000000
C     2.774000000     3.862000000     0.239000000
C     3.203000000     4.114000000     1.694000000
H     2.998000000     5.153000000     1.961000000
H     4.291000000     4.074000000     1.774000000
C     2.553000000     3.140000000     2.649000000
C     3.113000000     1.897000000     2.843000000
C     2.593000000     1.014000000     3.809000000
H     3.061000000     0.047000000     3.973000000
C     1.346000000     1.319000000     4.353000000
O     0.673000000     0.369000000     5.004000000
C    -0.288000000    -0.336000000     4.185000000
H    -0.111000000    -0.078000000     3.131000000
C    -0.133000000    -1.863000000     4.174000000
C    -1.238000000    -2.595000000     3.661000000
H    -2.098000000    -2.132000000     3.183000000
C     1.021000000    -2.491000000     4.592000000
H     1.861000000    -1.894000000     4.937000000
C     1.035000000    -3.875000000     4.535000000
O     2.121000000    -4.464000000     5.054000000
C    -0.010000000    -4.643000000     4.003000000
H     0.019000000    -5.730000000     4.003000000
C    -1.167000000    -3.991000000     3.594000000
O    -2.255000000    -4.763000000     3.220000000
C    -3.553000000    -4.211000000     3.133000000
C    -4.230000000    -4.291000000     1.909000000
H    -3.710000000    -4.810000000     1.108000000
C    -4.105000000    -3.594000000     4.269000000
H    -3.528000000    -3.565000000     5.190000000
C    -5.361000000    -2.980000000     4.147000000
H    -5.857000000    -2.428000000     4.942000000
C    -5.984000000    -2.992000000     2.909000000
H    -6.944000000    -2.501000000     2.769000000
C    -5.452000000    -3.695000000     1.811000000
O    -5.976000000    -3.628000000     0.555000000
C    -5.613000000    -2.645000000    -0.349000000
C    -5.795000000    -2.920000000    -1.713000000
H    -6.157000000    -3.876000000    -2.083000000
C    -5.502000000    -1.914000000    -2.682000000
O    -5.648000000    -2.215000000    -4.055000000
C    -5.093000000    -1.383000000    -4.991000000
C    -3.816000000    -1.721000000    -5.494000000
H    -3.302000000    -2.570000000    -5.051000000
C    -5.777000000    -0.357000000    -5.590000000
H    -6.815000000    -0.188000000    -5.315000000
C    -5.123000000     0.475000000    -6.547000000
H    -5.587000000     1.388000000    -6.912000000
C    -3.861000000     0.241000000    -6.966000000
H    -3.357000000     0.936000000    -7.633000000
C    -3.182000000    -0.825000000    -6.402000000
O    -1.856000000    -1.187000000    -6.733000000
C    -0.658000000    -0.532000000    -6.407000000
C     0.560000000    -1.183000000    -6.516000000
H     0.599000000    -2.101000000    -7.095000000
C     1.696000000    -0.745000000    -5.798000000
O     2.840000000    -1.594000000    -5.800000000
C     4.020000000    -1.324000000    -5.136000000
C     4.435000000    -2.245000000    -4.128000000
H     3.864000000    -3.166000000    -4.046000000
C     4.728000000    -0.179000000    -5.360000000
H     4.360000000     0.589000000    -6.036000000
C     5.689000000     0.238000000    -4.477000000
H     6.118000000     1.234000000    -4.552000000
C     6.097000000    -0.587000000    -3.485000000
H     6.960000000    -0.350000000    -2.868000000
C     5.440000000    -1.825000000    -3.256000000
O     5.692000000    -2.502000000    -2.078000000
C     5.532000000    -2.044000000    -0.761000000
C     5.869000000    -2.880000000     0.349000000
H     6.459000000    -3.778000000     0.182000000
C     5.684000000    -2.395000000     1.616000000
O     6.177000000    -3.196000000     2.645000000
C     5.438000000    -3.343000000     3.796000000
C     6.130000000    -3.128000000     5.023000000
H     7.136000000    -2.716000000     5.026000000
C     5.456000000    -3.361000000     6.252000000
H     6.065000000    -3.258000000     7.147000000
C     4.073000000    -3.758000000     6.232000000
H     3.565000000    -4.126000000     7.119000000
C     3.424000000    -3.948000000     5.025000000
C     4.123000000    -3.791000000     3.823000000
H     3.666000000    -3.966000000     2.853000000
C    -1.436000000    -2.873000000    -0.643000000
H    -2.191000000    -3.354000000    -1.260000000
C    -1.347000000    -1.448000000    -0.594000000
H    -2.124000000    -0.884000000    -1.103000000
C    -0.281000000    -0.866000000     0.095000000
H    -0.154000000     0.171000000     0.195000000
C     0.720000000    -1.649000000     0.664000000
H     1.584000000    -1.222000000     1.167000000
C     0.585000000    -3.106000000     0.606000000
H     1.286000000    -3.735000000     1.148000000
C    -0.483000000    -3.692000000    -0.079000000
C    -0.668000000    -5.220000000    -0.093000000
O     0.206000000    -5.964000000     0.276000000
O    -1.490000000    -5.674000000    -0.881000000
O     1.414000000    -7.166000000    -1.783000000
H     0.760000000    -7.052000000    -2.473000000
H     1.157000000    -6.541000000    -1.105000000
O    -1.716000000    -7.841000000     3.727000000
H    -2.041000000    -7.858000000     4.627000000
H    -2.454000000    -7.512000000     3.213000000
O     1.178000000    -9.213000000     4.379000000
H     1.105000000    -8.492000000     5.005000000
H     1.055000000    -8.800000000     3.524000000
O     2.789000000    -5.911000000     0.874000000
H     1.832000000    -5.892000000     0.855000000
H     3.002000000    -6.516000000     1.585000000
O    -4.228000000    -7.791000000     1.664000000
H    -4.883000000    -7.632000000     2.343000000
H    -4.602000000    -7.399000000     0.874000000
O     3.321000000    -4.132000000    -1.464000000
H     4.235000000    -3.864000000    -1.377000000
H     3.142000000    -4.636000000    -0.671000000
O    -1.465000000    -7.688000000    -2.728000000
H    -2.414000000    -7.813000000    -2.700000000
H    -1.294000000    -7.005000000    -2.080000000
O    -4.465000000    -6.248000000    -4.916000000
H    -4.217000000    -5.766000000    -4.127000000
H    -3.997000000    -5.806000000    -5.624000000
O    -2.332000000   -10.726000000    -1.411000000
H    -1.936000000    -9.991000000    -0.944000000
H    -2.668000000   -11.296000000    -0.719000000
O    -3.370000000    -5.081000000    -2.619000000
H    -2.779000000    -5.373000000    -1.925000000
H    -2.828000000    -4.520000000    -3.175000000
O    -1.124000000    -6.730000000    -5.140000000
H    -0.515000000    -7.452000000    -5.293000000
H    -1.581000000    -6.969000000    -4.334000000
O     5.137000000    -6.158000000    -0.704000000
H     4.805000000    -6.049000000    -1.595000000
H     4.353000000    -6.277000000    -0.169000000
O     0.989000000    -3.100000000    -2.738000000
H     1.793000000    -3.427000000    -2.334000000
H     0.523000000    -2.664000000    -2.025000000
O     0.764000000    -7.648000000     2.289000000
H     0.490000000    -7.150000000     1.519000000
H    -0.032000000    -7.734000000     2.814000000
O     3.796000000    -7.923000000    -2.611000000
H     2.993000000    -7.707000000    -2.136000000
H     3.908000000    -8.864000000    -2.478000000
O    -2.004000000    -8.097000000     0.026000000
H    -2.655000000    -7.985000000     0.718000000
H    -1.608000000    -7.232000000    -0.075000000
O    -5.445000000    -6.577000000    -1.055000000
H    -5.437000000    -7.360000000    -1.607000000
H    -4.724000000    -6.042000000    -1.388000000
O     0.443000000    -9.445000000    -0.021000000
H     0.908000000    -8.666000000    -0.326000000
H    -0.468000000    -9.164000000     0.063000000
O    -1.331000000    -3.676000000    -3.951000000
H    -1.092000000    -4.265000000    -4.667000000
H    -0.512000000    -3.530000000    -3.478000000
