215
-1460.04084
C     1.752000000    -2.014000000     4.625000000
H     2.172000000    -2.942000000     4.247000000
C     0.361000000    -1.674000000     4.477000000
C    -0.114000000    -0.625000000     5.225000000
H    -1.138000000    -0.264000000     5.169000000
C    -0.614000000    -2.369000000     3.489000000
O    -0.234000000    -3.694000000     3.248000000
H    -0.464000000    -1.902000000     2.504000000
O    -1.991000000    -2.234000000     3.871000000
C    -2.844000000    -2.047000000     2.897000000
C    -3.308000000    -0.762000000     2.762000000
H    -2.817000000    -0.010000000     3.374000000
C    -4.179000000    -0.400000000     1.760000000
O    -4.495000000     0.859000000     1.515000000
C    -4.634000000    -1.406000000     0.857000000
C    -5.461000000    -1.009000000    -0.374000000
H    -5.950000000    -1.922000000    -0.719000000
C    -4.602000000    -0.404000000    -1.511000000
C    -4.124000000    -1.285000000    -2.491000000
H    -4.272000000    -2.358000000    -2.405000000
H    -6.328000000    -0.370000000    -0.194000000
C    -4.168000000    -2.722000000     0.997000000
H    -4.368000000    -3.506000000     0.270000000
C    -3.322000000    -3.023000000     2.018000000
C    -2.780000000    -4.411000000     2.093000000
H    -3.565000000    -5.062000000     1.703000000
H    -2.616000000    -4.709000000     3.131000000
C    -1.496000000    -4.585000000     1.347000000
C    -1.406000000    -4.827000000    -0.016000000
H    -2.268000000    -4.892000000    -0.675000000
C    -0.325000000    -4.268000000     2.014000000
C     0.934000000    -4.358000000     1.421000000
H     1.866000000    -4.138000000     1.936000000
C     1.003000000    -4.745000000     0.088000000
O     2.222000000    -4.517000000    -0.577000000
C     2.233000000    -3.172000000    -1.269000000
C     3.375000000    -2.276000000    -0.841000000
C     3.674000000    -1.116000000    -1.530000000
H     3.006000000    -0.774000000    -2.317000000
C     4.279000000    -2.746000000     0.105000000
H     4.095000000    -3.650000000     0.680000000
O     2.258000000    -3.440000000    -2.666000000
H     1.334000000    -2.603000000    -0.986000000
C    -0.132000000    -5.009000000    -0.648000000
C    -0.079000000    -5.192000000    -2.169000000
H    -0.945000000    -5.736000000    -2.550000000
H     0.836000000    -5.676000000    -2.517000000
C    -0.107000000    -3.924000000    -2.985000000
C    -1.320000000    -3.485000000    -3.483000000
H    -2.186000000    -4.089000000    -3.227000000
C     1.086000000    -3.220000000    -3.332000000
C     0.964000000    -2.083000000    -4.120000000
H     1.884000000    -1.525000000    -4.273000000
C    -0.241000000    -1.571000000    -4.519000000
O    -0.302000000    -0.348000000    -5.160000000
C    -0.828000000     0.850000000    -4.353000000
C     0.049000000     2.076000000    -4.676000000
C     1.410000000     2.000000000    -5.009000000
H     1.919000000     1.044000000    -5.099000000
C    -0.495000000     3.361000000    -4.484000000
H    -1.512000000     3.468000000    -4.117000000
O    -2.211000000     1.083000000    -4.584000000
H    -0.574000000     0.537000000    -3.329000000
C    -1.395000000    -2.290000000    -4.193000000
C    -2.761000000    -1.736000000    -4.588000000
H    -3.521000000    -2.475000000    -4.849000000
H    -2.539000000    -1.216000000    -5.522000000
C    -3.391000000    -0.768000000    -3.552000000
C    -3.035000000     0.567000000    -3.647000000
C    -3.431000000     1.396000000    -2.611000000
H    -3.199000000     2.458000000    -2.625000000
C    -4.293000000     0.953000000    -1.555000000
O    -4.514000000     1.831000000    -0.494000000
C    -3.694000000     1.617000000     0.647000000
H    -2.848000000     0.983000000     0.343000000
C    -3.236000000     2.841000000     1.227000000
C    -3.231000000     3.023000000     2.631000000
H    -3.709000000     2.276000000     3.259000000
C    -2.702000000     3.794000000     0.395000000
H    -2.641000000     3.635000000    -0.679000000
C    -1.970000000     4.888000000     0.927000000
O    -1.251000000     5.893000000     0.214000000
C    -2.008000000     5.086000000     2.322000000
H    -1.639000000     6.048000000     2.670000000
C    -2.653000000     4.165000000     3.170000000
O    -2.782000000     4.467000000     4.515000000
C    -2.493000000     3.495000000     5.429000000
C    -1.164000000     2.951000000     5.620000000
H    -0.318000000     3.280000000     5.022000000
C    -3.544000000     2.893000000     6.163000000
H    -4.582000000     3.155000000     5.970000000
C    -3.371000000     1.771000000     7.004000000
H    -4.121000000     1.182000000     7.526000000
C    -2.052000000     1.372000000     7.202000000
H    -1.797000000     0.585000000     7.907000000
C    -1.013000000     1.893000000     6.510000000
O     0.243000000     1.287000000     6.670000000
C     0.657000000     0.147000000     6.080000000
C     2.006000000    -0.116000000     6.104000000
H     2.678000000     0.406000000     6.780000000
C     2.565000000    -1.199000000     5.417000000
O     3.916000000    -1.563000000     5.629000000
C     4.654000000    -2.358000000     4.790000000
C     5.026000000    -1.899000000     3.491000000
H     4.825000000    -0.873000000     3.192000000
C     5.033000000    -3.629000000     5.242000000
H     4.730000000    -4.071000000     6.187000000
C     5.864000000    -4.468000000     4.500000000
H     6.219000000    -5.426000000     4.871000000
C     6.173000000    -4.053000000     3.180000000
H     6.827000000    -4.675000000     2.573000000
C     5.714000000    -2.809000000     2.658000000
O     6.198000000    -2.391000000     1.455000000
C     5.388000000    -1.991000000     0.443000000
C     5.676000000    -0.850000000    -0.256000000
H     6.606000000    -0.402000000     0.085000000
C     4.883000000    -0.431000000    -1.316000000
O     5.219000000     0.787000000    -1.878000000
C     5.194000000     1.028000000    -3.262000000
C     4.327000000     1.941000000    -3.820000000
H     3.605000000     2.435000000    -3.175000000
C     6.273000000     0.676000000    -4.043000000
H     7.143000000     0.294000000    -3.515000000
C     6.232000000     0.964000000    -5.384000000
H     7.135000000     0.653000000    -5.903000000
C     5.285000000     1.725000000    -5.989000000
H     5.298000000     2.018000000    -7.036000000
C     4.313000000     2.257000000    -5.198000000
O     3.360000000     3.029000000    -5.819000000
C     2.129000000     3.168000000    -5.277000000
C     1.545000000     4.391000000    -5.196000000
H     2.002000000     5.302000000    -5.577000000
C     0.247000000     4.493000000    -4.689000000
O    -0.355000000     5.682000000    -4.504000000
C    -1.208000000     6.057000000    -3.474000000
C    -2.378000000     6.769000000    -3.706000000
H    -2.627000000     7.023000000    -4.733000000
C    -3.095000000     7.340000000    -2.618000000
H    -4.057000000     7.826000000    -2.754000000
C    -2.805000000     6.930000000    -1.334000000
H    -3.425000000     7.096000000    -0.457000000
C    -1.573000000     6.291000000    -1.141000000
C    -0.820000000     5.804000000    -2.190000000
H     0.086000000     5.223000000    -2.038000000
C     0.316000000     2.486000000     1.513000000
H     0.103000000     2.926000000     2.484000000
C    -0.125000000     1.207000000     1.314000000
H    -0.562000000     0.623000000     2.120000000
C     0.192000000     0.613000000     0.091000000
H    -0.085000000    -0.398000000     0.065000000
C     0.860000000     1.294000000    -0.902000000
H     1.021000000     0.816000000    -1.865000000
C     1.324000000     2.598000000    -0.656000000
H     1.854000000     3.026000000    -1.503000000
C     1.057000000     3.226000000     0.571000000
C     1.473000000     4.683000000     0.836000000
O     1.988000000     5.369000000    -0.015000000
O     1.194000000     5.294000000     1.912000000
O     4.000000000     2.760000000     4.131000000
H     4.663000000     2.252000000     4.599000000
H     3.766000000     3.464000000     4.736000000
O    -0.960000000     9.442000000    -2.118000000
H    -1.612000000     9.481000000    -1.418000000
H    -0.398000000     8.704000000    -1.881000000
O     1.594000000     8.667000000     4.321000000
H     2.525000000     8.535000000     4.141000000
H     1.163000000     8.510000000     3.481000000
O     7.325000000     3.737000000     0.503000000
H     6.398000000     3.876000000     0.310000000
H     7.786000000     4.182000000    -0.208000000
O     4.290000000     5.450000000    -1.049000000
H     4.481000000     4.530000000    -0.868000000
H     3.339000000     5.519000000    -0.960000000
O     1.493000000     8.061000000    -4.124000000
H     2.274000000     7.927000000    -3.586000000
H     0.866000000     7.414000000    -3.801000000
O    -1.942000000     8.813000000     2.625000000
H    -1.180000000     8.545000000     2.112000000
H    -1.728000000     8.558000000     3.523000000
O     6.221000000     6.492000000     1.108000000
H     5.822000000     6.628000000     0.248000000
H     5.479000000     6.355000000     1.697000000
O     4.525000000     8.055000000    -1.398000000
H     3.873000000     8.358000000    -0.766000000
H     4.508000000     7.101000000    -1.322000000
O     1.106000000     7.691000000    -1.146000000
H     1.815000000     8.249000000    -0.827000000
H     1.236000000     6.857000000    -0.693000000
O     3.607000000     1.761000000     1.747000000
H     2.787000000     1.342000000     1.484000000
H     3.407000000     2.171000000     2.589000000
O     3.185000000     4.557000000     6.002000000
H     3.687000000     5.353000000     6.173000000
H     2.323000000     4.872000000     5.730000000
O     4.891000000     2.961000000    -0.517000000
H     5.086000000     2.226000000    -1.099000000
H     4.481000000     2.558000000     0.248000000
O     3.881000000     5.960000000     2.769000000
H     2.986000000     5.814000000     2.461000000
H     4.285000000     5.092000000     2.750000000
O    -0.407000000     6.114000000     6.725000000
H     0.080000000     5.887000000     5.934000000
H    -0.372000000     5.323000000     7.263000000
O     4.236000000     8.533000000     3.570000000
H     4.289000000     7.611000000     3.317000000
H     4.744000000     8.994000000     2.903000000
O     0.471000000     7.924000000     1.804000000
H     1.031000000     8.271000000     1.109000000
H     0.526000000     6.974000000     1.704000000
O     1.118000000     5.517000000     4.587000000
H     1.114000000     5.241000000     3.671000000
H     1.194000000     6.471000000     4.549000000
O     2.895000000     9.439000000     0.435000000
H     2.418000000    10.077000000     0.966000000
H     3.809000000     9.547000000     0.696000000
