215
-1429.61525
C    -4.880000000    -0.927000000    -1.541000000
H    -4.511000000    -0.226000000    -2.285000000
C    -4.990000000    -0.512000000    -0.243000000
C    -5.491000000    -1.429000000     0.649000000
H    -5.679000000    -1.224000000     1.700000000
C    -4.419000000     0.877000000     0.189000000
O    -4.678000000     1.934000000    -0.836000000
H    -3.333000000     0.705000000     0.222000000
O    -4.805000000     1.246000000     1.534000000
C    -3.788000000     1.636000000     2.381000000
C    -3.092000000     0.677000000     3.102000000
H    -3.352000000    -0.361000000     2.909000000
C    -1.973000000     1.016000000     3.834000000
O    -1.378000000     0.067000000     4.659000000
C    -1.575000000     2.407000000     3.912000000
C    -0.378000000     2.815000000     4.779000000
H    -0.511000000     3.855000000     5.083000000
C     0.988000000     2.552000000     4.132000000
C     1.549000000     3.534000000     3.325000000
H     1.064000000     4.503000000     3.236000000
H    -0.403000000     2.273000000     5.727000000
C    -2.173000000     3.321000000     3.030000000
H    -1.845000000     4.357000000     3.075000000
C    -3.270000000     2.945000000     2.219000000
C    -3.830000000     3.914000000     1.224000000
H    -3.901000000     4.963000000     1.519000000
H    -4.856000000     3.541000000     1.241000000
C    -3.209000000     3.754000000    -0.179000000
C    -2.012000000     4.494000000    -0.467000000
H    -1.705000000     5.229000000     0.273000000
C    -3.646000000     2.795000000    -1.123000000
C    -2.907000000     2.545000000    -2.256000000
H    -3.276000000     1.826000000    -2.983000000
C    -1.753000000     3.257000000    -2.536000000
O    -1.094000000     2.877000000    -3.729000000
C     0.137000000     2.109000000    -3.594000000
C     0.233000000     1.016000000    -4.700000000
C     1.440000000     0.670000000    -5.195000000
H     2.361000000     1.027000000    -4.742000000
C    -0.938000000     0.434000000    -5.147000000
H    -1.902000000     0.761000000    -4.767000000
O     1.321000000     2.952000000    -3.625000000
H     0.057000000     1.718000000    -2.569000000
C    -1.320000000     4.208000000    -1.630000000
C    -0.082000000     4.967000000    -2.035000000
H    -0.075000000     5.955000000    -1.570000000
H    -0.105000000     5.202000000    -3.102000000
C     1.169000000     4.314000000    -1.612000000
C     1.673000000     4.584000000    -0.402000000
H     1.043000000     5.073000000     0.337000000
C     1.883000000     3.494000000    -2.516000000
C     3.075000000     2.957000000    -2.069000000
H     3.609000000     2.298000000    -2.750000000
C     3.528000000     3.208000000    -0.805000000
O     4.550000000     2.378000000    -0.344000000
C     4.133000000     1.285000000     0.490000000
C     4.780000000    -0.063000000     0.043000000
C     4.776000000    -0.520000000    -1.310000000
H     4.320000000     0.116000000    -2.064000000
C     5.349000000    -0.926000000     1.003000000
H     5.147000000    -0.661000000     2.038000000
O     4.375000000     1.593000000     1.906000000
H     3.054000000     1.209000000     0.293000000
C     2.850000000     4.014000000     0.079000000
C     3.349000000     4.175000000     1.534000000
H     3.029000000     5.184000000     1.805000000
H     4.440000000     4.222000000     1.530000000
C     2.677000000     3.187000000     2.530000000
C     3.259000000     1.891000000     2.584000000
C     2.661000000     0.933000000     3.401000000
H     3.102000000    -0.060000000     3.380000000
C     1.498000000     1.231000000     4.092000000
O     0.959000000     0.182000000     4.771000000
C    -0.174000000    -0.449000000     4.133000000
H    -0.240000000    -0.209000000     3.062000000
C    -0.038000000    -1.986000000     4.157000000
C    -1.214000000    -2.757000000     3.959000000
H    -2.105000000    -2.147000000     3.832000000
C     1.194000000    -2.600000000     4.413000000
H     2.113000000    -2.021000000     4.444000000
C     1.239000000    -4.015000000     4.361000000
O     2.419000000    -4.638000000     4.682000000
C     0.078000000    -4.748000000     4.175000000
H     0.085000000    -5.819000000     3.988000000
C    -1.157000000    -4.138000000     4.036000000
O    -2.212000000    -4.914000000     3.693000000
C    -3.438000000    -4.340000000     3.694000000
C    -4.115000000    -4.308000000     2.513000000
H    -3.667000000    -4.851000000     1.685000000
C    -3.911000000    -3.630000000     4.853000000
H    -3.362000000    -3.598000000     5.791000000
C    -5.221000000    -3.176000000     4.764000000
H    -5.647000000    -2.701000000     5.644000000
C    -5.972000000    -3.232000000     3.584000000
H    -6.920000000    -2.702000000     3.530000000
C    -5.392000000    -3.753000000     2.423000000
O    -5.999000000    -3.684000000     1.204000000
C    -5.732000000    -2.706000000     0.291000000
C    -5.581000000    -3.124000000    -1.008000000
H    -5.856000000    -4.131000000    -1.309000000
C    -5.226000000    -2.173000000    -1.985000000
O    -5.089000000    -2.530000000    -3.301000000
C    -4.834000000    -1.665000000    -4.342000000
C    -3.551000000    -1.653000000    -4.908000000
H    -2.723000000    -2.249000000    -4.533000000
C    -5.846000000    -0.828000000    -4.799000000
H    -6.812000000    -0.854000000    -4.302000000
C    -5.670000000    -0.246000000    -6.042000000
H    -6.528000000     0.244000000    -6.495000000
C    -4.424000000    -0.202000000    -6.664000000
H    -4.166000000     0.315000000    -7.584000000
C    -3.359000000    -0.875000000    -6.051000000
O    -2.112000000    -0.978000000    -6.672000000
C    -0.941000000    -0.435000000    -6.178000000
C     0.278000000    -0.781000000    -6.778000000
H     0.258000000    -1.573000000    -7.522000000
C     1.479000000    -0.364000000    -6.151000000
O     2.779000000    -0.724000000    -6.633000000
C     3.960000000    -0.674000000    -5.958000000
C     4.182000000    -1.575000000    -4.848000000
H     3.407000000    -2.298000000    -4.606000000
C     4.831000000     0.339000000    -6.161000000
H     4.592000000     0.990000000    -6.998000000
C     5.963000000     0.415000000    -5.358000000
H     6.751000000     1.136000000    -5.564000000
C     6.208000000    -0.438000000    -4.289000000
H     7.056000000    -0.239000000    -3.640000000
C     5.255000000    -1.452000000    -4.011000000
O     5.295000000    -2.280000000    -2.947000000
C     5.255000000    -1.793000000    -1.645000000
C     5.731000000    -2.624000000    -0.626000000
H     6.060000000    -3.626000000    -0.889000000
C     5.728000000    -2.244000000     0.711000000
O     5.998000000    -3.224000000     1.708000000
C     5.422000000    -3.283000000     2.986000000
C     6.152000000    -2.789000000     4.083000000
H     7.107000000    -2.312000000     3.877000000
C     5.742000000    -3.052000000     5.355000000
H     6.254000000    -2.667000000     6.233000000
C     4.469000000    -3.686000000     5.506000000
H     4.056000000    -3.845000000     6.499000000
C     3.681000000    -4.114000000     4.455000000
C     4.190000000    -3.966000000     3.178000000
H     3.618000000    -4.301000000     2.317000000
C    -1.499000000    -1.762000000    -1.112000000
H    -2.436000000    -2.010000000    -1.603000000
C    -1.204000000    -0.429000000    -0.872000000
H    -1.841000000     0.337000000    -1.306000000
C    -0.301000000    -0.081000000     0.013000000
H    -0.185000000     0.963000000     0.367000000
C     0.450000000    -1.044000000     0.636000000
H     1.185000000    -0.698000000     1.358000000
C     0.113000000    -2.381000000     0.524000000
H     0.576000000    -3.187000000     1.088000000
C    -0.829000000    -2.793000000    -0.458000000
C    -1.182000000    -4.216000000    -0.619000000
O    -0.364000000    -5.040000000    -0.174000000
O    -2.019000000    -4.632000000    -1.470000000
O     5.016000000    -6.457000000     1.112000000
H     5.782000000    -5.889000000     1.021000000
H     4.499000000    -6.289000000     0.325000000
O     1.206000000    -5.915000000    -2.480000000
H     0.662000000    -6.633000000    -2.803000000
H     0.583000000    -5.298000000    -2.094000000
O    -3.184000000    -6.792000000     5.192000000
H    -2.882000000    -5.908000000     4.984000000
H    -3.743000000    -7.035000000     4.454000000
O     1.802000000    -6.228000000     0.981000000
H     1.114000000    -5.760000000     0.509000000
H     1.331000000    -6.797000000     1.589000000
O    -6.924000000    -6.800000000     0.430000000
H    -7.540000000    -7.203000000     1.042000000
H    -6.836000000    -5.898000000     0.737000000
O     2.752000000    -5.303000000    -4.672000000
H     2.395000000    -5.052000000    -3.820000000
H     2.360000000    -6.157000000    -4.854000000
O     3.689000000    -5.534000000    -1.064000000
H     3.133000000    -5.703000000    -0.303000000
H     3.076000000    -5.432000000    -1.791000000
O    -1.541000000    -7.199000000    -1.734000000
H    -1.176000000    -7.630000000    -0.961000000
H    -1.819000000    -6.338000000    -1.419000000
O    -1.278000000   -10.547000000    -1.665000000
H    -1.704000000   -10.177000000    -0.892000000
H    -0.944000000   -11.395000000    -1.372000000
O    -3.536000000    -5.330000000    -3.769000000
H    -2.915000000    -5.563000000    -4.460000000
H    -2.987000000    -5.037000000    -3.042000000
O    -0.729000000    -6.189000000    -5.627000000
H    -0.725000000    -5.520000000    -4.942000000
H    -0.161000000    -6.882000000    -5.288000000
O     3.133000000    -7.704000000     3.273000000
H     3.346000000    -8.546000000     2.872000000
H     2.884000000    -7.144000000     2.537000000
O     1.766000000    -2.884000000    -2.412000000
H     2.694000000    -2.841000000    -2.182000000
H     1.368000000    -2.154000000    -1.938000000
O     2.789000000    -8.875000000    -1.116000000
H     2.206000000    -8.119000000    -1.189000000
H     2.295000000    -9.597000000    -1.505000000
O    -1.376000000    -7.024000000     1.491000000
H    -2.253000000    -6.744000000     1.752000000
H    -1.085000000    -6.355000000     0.871000000
O    -6.171000000    -5.963000000    -3.785000000
H    -6.028000000    -6.850000000    -4.117000000
H    -5.291000000    -5.605000000    -3.671000000
O    -2.478000000    -9.526000000     0.624000000
H    -2.173000000    -8.988000000     1.355000000
H    -3.427000000    -9.576000000     0.743000000
O    -2.495000000    -8.522000000    -4.069000000
H    -1.667000000    -8.881000000    -3.750000000
H    -2.595000000    -7.695000000    -3.598000000
O    -0.555000000    -3.852000000    -3.768000000
H    -1.084000000    -3.892000000    -2.971000000
H     0.303000000    -3.549000000    -3.471000000
