215
-1440.95564
C     1.559000000    -3.528000000     4.056000000
H     2.258000000    -4.131000000     3.483000000
C     0.284000000    -3.217000000     3.556000000
C    -0.497000000    -2.360000000     4.378000000
H    -1.466000000    -2.062000000     3.986000000
C    -0.174000000    -3.663000000     2.195000000
O     0.778000000    -4.572000000     1.714000000
H    -0.207000000    -2.753000000     1.578000000
O    -1.455000000    -4.224000000     2.324000000
C    -2.286000000    -3.908000000     1.269000000
C    -3.192000000    -2.818000000     1.481000000
H    -3.279000000    -2.265000000     2.412000000
C    -3.925000000    -2.330000000     0.376000000
O    -4.620000000    -1.140000000     0.637000000
C    -3.893000000    -2.938000000    -0.870000000
C    -4.580000000    -2.391000000    -2.119000000
H    -4.530000000    -3.152000000    -2.901000000
C    -3.893000000    -1.169000000    -2.694000000
C    -2.909000000    -1.336000000    -3.695000000
H    -2.697000000    -2.332000000    -4.077000000
H    -5.649000000    -2.273000000    -1.930000000
C    -3.000000000    -4.000000000    -1.037000000
H    -2.909000000    -4.392000000    -2.046000000
C    -2.159000000    -4.461000000     0.027000000
C    -1.088000000    -5.534000000    -0.277000000
H    -1.489000000    -5.886000000    -1.230000000
H    -0.985000000    -6.334000000     0.459000000
C     0.218000000    -4.881000000    -0.570000000
C     0.548000000    -4.551000000    -1.905000000
H    -0.155000000    -4.848000000    -2.679000000
C     1.106000000    -4.533000000     0.420000000
C     2.287000000    -3.895000000     0.117000000
H     2.959000000    -3.576000000     0.910000000
C     2.636000000    -3.659000000    -1.202000000
O     3.789000000    -2.932000000    -1.289000000
C     3.689000000    -1.547000000    -1.544000000
C     4.730000000    -0.696000000    -0.817000000
C     5.425000000     0.445000000    -1.405000000
H     5.195000000     0.735000000    -2.427000000
C     4.942000000    -0.950000000     0.545000000
H     4.410000000    -1.752000000     1.050000000
O     3.807000000    -1.496000000    -3.022000000
H     2.687000000    -1.225000000    -1.224000000
C     1.764000000    -3.999000000    -2.203000000
C     2.015000000    -3.831000000    -3.699000000
H     1.353000000    -4.421000000    -4.337000000
H     3.056000000    -4.018000000    -3.967000000
C     1.828000000    -2.337000000    -4.062000000
C     0.603000000    -1.994000000    -4.538000000
H    -0.101000000    -2.802000000    -4.720000000
C     2.651000000    -1.287000000    -3.732000000
C     2.145000000     0.033000000    -3.767000000
H     2.653000000     0.855000000    -3.267000000
C     0.947000000     0.383000000    -4.366000000
O     0.500000000     1.658000000    -4.264000000
C    -0.534000000     2.041000000    -3.339000000
C    -0.214000000     3.381000000    -2.698000000
C     1.028000000     3.540000000    -2.034000000
H     1.752000000     2.743000000    -2.182000000
C    -1.108000000     4.500000000    -2.575000000
H    -2.054000000     4.371000000    -3.096000000
O    -1.757000000     2.012000000    -4.036000000
H    -0.546000000     1.269000000    -2.555000000
C     0.146000000    -0.695000000    -4.826000000
C    -1.269000000    -0.449000000    -5.320000000
H    -1.530000000    -1.415000000    -5.755000000
H    -1.348000000     0.388000000    -6.017000000
C    -2.275000000    -0.251000000    -4.235000000
C    -2.543000000     1.030000000    -3.764000000
C    -3.477000000     1.198000000    -2.769000000
H    -3.595000000     2.124000000    -2.212000000
C    -4.175000000     0.090000000    -2.275000000
O    -4.928000000     0.305000000    -1.232000000
C    -4.289000000     0.151000000     0.079000000
H    -3.225000000    -0.053000000    -0.111000000
C    -4.458000000     1.297000000     0.993000000
C    -4.002000000     1.252000000     2.300000000
H    -3.562000000     0.336000000     2.687000000
C    -4.881000000     2.518000000     0.525000000
H    -5.221000000     2.622000000    -0.502000000
C    -4.942000000     3.587000000     1.389000000
O    -5.405000000     4.769000000     0.922000000
C    -4.611000000     3.479000000     2.740000000
H    -4.810000000     4.293000000     3.432000000
C    -4.036000000     2.306000000     3.161000000
O    -3.566000000     2.355000000     4.477000000
C    -3.494000000     1.183000000     5.223000000
C    -2.252000000     0.783000000     5.566000000
H    -1.420000000     1.446000000     5.339000000
C    -4.621000000     0.433000000     5.608000000
H    -5.576000000     0.931000000     5.457000000
C    -4.443000000    -0.785000000     6.201000000
H    -5.332000000    -1.300000000     6.558000000
C    -3.183000000    -1.305000000     6.505000000
H    -3.040000000    -2.226000000     7.065000000
C    -2.074000000    -0.515000000     6.120000000
O    -0.800000000    -0.979000000     6.362000000
C    -0.054000000    -1.883000000     5.612000000
C     1.225000000    -2.205000000     6.046000000
H     1.620000000    -1.861000000     6.999000000
C     1.994000000    -3.038000000     5.271000000
O     3.284000000    -3.404000000     5.646000000
C     4.375000000    -3.049000000     4.845000000
C     4.554000000    -1.877000000     4.043000000
H     3.763000000    -1.136000000     4.124000000
C     5.265000000    -4.105000000     4.684000000
H     5.119000000    -4.968000000     5.329000000
C     6.328000000    -4.043000000     3.828000000
H     6.994000000    -4.901000000     3.787000000
C     6.636000000    -2.785000000     3.202000000
H     7.542000000    -2.689000000     2.609000000
C     5.668000000    -1.761000000     3.213000000
O     6.021000000    -0.547000000     2.640000000
C     5.764000000    -0.160000000     1.325000000
C     6.437000000     0.899000000     0.707000000
H     7.254000000     1.418000000     1.202000000
C     6.242000000     1.190000000    -0.614000000
O     6.780000000     2.358000000    -1.121000000
C     5.907000000     3.215000000    -1.763000000
C     4.814000000     3.709000000    -1.100000000
H     4.808000000     3.649000000    -0.014000000
C     6.099000000     3.538000000    -3.113000000
H     6.921000000     3.172000000    -3.723000000
C     5.110000000     4.228000000    -3.757000000
H     5.289000000     4.444000000    -4.807000000
C     4.019000000     4.839000000    -3.052000000
H     3.262000000     5.369000000    -3.626000000
C     3.856000000     4.497000000    -1.739000000
O     2.773000000     5.001000000    -1.054000000
C     1.437000000     4.719000000    -1.421000000
C     0.520000000     5.766000000    -1.297000000
H     0.841000000     6.738000000    -0.931000000
C    -0.758000000     5.583000000    -1.752000000
O    -1.700000000     6.569000000    -1.561000000
C    -3.057000000     6.226000000    -1.489000000
C    -3.951000000     6.677000000    -2.504000000
H    -3.697000000     7.066000000    -3.487000000
C    -5.333000000     6.407000000    -2.352000000
H    -6.051000000     6.731000000    -3.100000000
C    -5.796000000     5.756000000    -1.173000000
H    -6.851000000     5.764000000    -0.914000000
C    -4.915000000     5.436000000    -0.167000000
C    -3.563000000     5.645000000    -0.304000000
H    -2.873000000     5.387000000     0.496000000
C     0.115000000     0.599000000     2.407000000
H    -0.388000000     0.706000000     3.364000000
C    -0.335000000    -0.243000000     1.431000000
H    -1.202000000    -0.859000000     1.657000000
C     0.253000000    -0.161000000     0.165000000
H    -0.136000000    -0.849000000    -0.521000000
C     1.389000000     0.704000000    -0.032000000
H     1.935000000     0.749000000    -0.970000000
C     1.919000000     1.448000000     1.023000000
H     2.746000000     2.131000000     0.849000000
C     1.176000000     1.539000000     2.162000000
C     1.582000000     2.587000000     3.188000000
O     2.663000000     3.098000000     3.112000000
O     0.931000000     2.936000000     4.162000000
O     6.672000000     3.608000000     7.931000000
H     7.218000000     2.902000000     7.584000000
H     6.166000000     3.912000000     7.178000000
O     4.686000000     1.624000000     3.851000000
H     3.934000000     2.089000000     3.484000000
H     4.802000000     0.866000000     3.278000000
O    -0.549000000     1.375000000     8.487000000
H    -0.209000000     0.575000000     8.887000000
H    -0.020000000     1.492000000     7.698000000
O     2.262000000     6.351000000     7.766000000
H     2.356000000     5.985000000     6.887000000
H     1.527000000     6.961000000     7.695000000
O     3.925000000     1.612000000     6.461000000
H     4.117000000     1.474000000     5.534000000
H     4.381000000     2.424000000     6.682000000
O    -1.408000000     3.155000000     1.348000000
H    -1.367000000     2.210000000     1.495000000
H    -0.570000000     3.370000000     0.937000000
O     7.203000000     2.901000000     3.539000000
H     6.341000000     2.508000000     3.672000000
H     7.784000000     2.157000000     3.378000000
O     5.057000000     6.769000000     4.472000000
H     5.600000000     7.228000000     3.832000000
H     4.496000000     6.199000000     3.944000000
O    -0.376000000     7.054000000     1.947000000
H     0.505000000     7.276000000     2.248000000
H    -0.559000000     6.204000000     2.349000000
O     3.989000000     5.260000000     2.555000000
H     3.407000000     4.553000000     2.835000000
H     4.823000000     4.827000000     2.375000000
O     7.008000000     5.110000000     1.950000000
H     7.695000000     5.050000000     1.286000000
H     7.091000000     4.301000000     2.455000000
O     3.575000000     0.157000000     8.603000000
H     4.252000000     0.636000000     9.082000000
H     3.621000000     0.504000000     7.712000000
O     2.341000000     7.518000000     2.491000000
H     3.042000000     6.870000000     2.559000000
H     2.534000000     7.996000000     1.685000000
O     1.152000000     1.772000000     6.504000000
H     0.996000000     2.256000000     5.693000000
H     2.078000000     1.533000000     6.466000000
O     1.255000000     3.895000000     8.760000000
H     1.178000000     4.676000000     8.212000000
H     1.206000000     3.164000000     8.144000000
O    -0.951000000     4.755000000     3.695000000
H    -0.394000000     4.055000000     4.036000000
H    -1.383000000     4.368000000     2.934000000
O     2.272000000     4.964000000     5.535000000
H     1.961000000     5.706000000     5.017000000
H     1.865000000     4.200000000     5.126000000
O     4.988000000     4.141000000     5.805000000
H     4.037000000     4.194000000     5.710000000
H     5.320000000     4.898000000     5.323000000
O    -1.610000000     6.542000000     5.655000000
H    -1.485000000     5.983000000     4.888000000
H    -1.538000000     5.946000000     6.400000000
