215
-1450.30891
C     0.768000000    -2.548000000     4.429000000
H     1.548000000    -2.799000000     3.714000000
C    -0.533000000    -2.786000000     4.001000000
C    -1.599000000    -2.341000000     4.800000000
H    -2.612000000    -2.515000000     4.444000000
C    -0.790000000    -3.440000000     2.639000000
O     0.163000000    -4.449000000     2.361000000
H    -0.664000000    -2.689000000     1.844000000
O    -2.168000000    -3.997000000     2.496000000
C    -2.786000000    -3.726000000     1.278000000
C    -3.537000000    -2.548000000     1.259000000
H    -3.627000000    -1.863000000     2.098000000
C    -4.130000000    -2.073000000     0.104000000
O    -4.773000000    -0.834000000     0.130000000
C    -3.851000000    -2.784000000    -1.094000000
C    -4.372000000    -2.348000000    -2.465000000
H    -4.380000000    -3.172000000    -3.181000000
C    -3.544000000    -1.282000000    -3.059000000
C    -2.505000000    -1.700000000    -3.908000000
H    -2.434000000    -2.778000000    -4.022000000
H    -5.394000000    -2.005000000    -2.295000000
C    -2.886000000    -3.863000000    -1.115000000
H    -2.541000000    -4.388000000    -2.002000000
C    -2.329000000    -4.356000000     0.096000000
C    -1.298000000    -5.421000000     0.082000000
H    -1.459000000    -6.132000000    -0.731000000
H    -1.489000000    -6.004000000     0.985000000
C     0.161000000    -4.962000000     0.003000000
C     0.834000000    -4.851000000    -1.247000000
H     0.395000000    -5.359000000    -2.102000000
C     0.812000000    -4.500000000     1.177000000
C     2.139000000    -3.932000000     1.042000000
H     2.671000000    -3.597000000     1.929000000
C     2.758000000    -3.868000000    -0.227000000
O     3.900000000    -3.043000000    -0.198000000
C     3.773000000    -1.648000000    -0.657000000
C     4.668000000    -0.735000000     0.162000000
C     5.158000000     0.453000000    -0.352000000
H     4.870000000     0.793000000    -1.344000000
C     5.144000000    -1.251000000     1.349000000
H     4.915000000    -2.265000000     1.666000000
O     4.083000000    -1.589000000    -2.030000000
H     2.720000000    -1.346000000    -0.563000000
C     2.094000000    -4.296000000    -1.396000000
C     2.672000000    -4.078000000    -2.787000000
H     2.242000000    -4.814000000    -3.469000000
H     3.764000000    -4.047000000    -2.787000000
C     2.271000000    -2.705000000    -3.322000000
C     1.185000000    -2.567000000    -4.190000000
H     0.549000000    -3.396000000    -4.489000000
C     3.036000000    -1.557000000    -2.970000000
C     2.766000000    -0.328000000    -3.579000000
H     3.403000000     0.532000000    -3.392000000
C     1.583000000    -0.126000000    -4.274000000
O     1.196000000     1.175000000    -4.619000000
C     0.131000000     1.782000000    -3.883000000
C     0.395000000     3.230000000    -3.650000000
C     1.615000000     3.530000000    -2.967000000
H     2.287000000     2.714000000    -2.713000000
C    -0.583000000     4.185000000    -3.787000000
H    -1.582000000     3.875000000    -4.084000000
O    -1.072000000     1.550000000    -4.636000000
H     0.121000000     1.321000000    -2.884000000
C     0.834000000    -1.281000000    -4.603000000
C    -0.466000000    -1.161000000    -5.352000000
H    -0.749000000    -2.105000000    -5.823000000
H    -0.269000000    -0.551000000    -6.236000000
C    -1.665000000    -0.792000000    -4.553000000
C    -1.920000000     0.568000000    -4.257000000
C    -2.893000000     1.006000000    -3.426000000
H    -2.976000000     2.043000000    -3.111000000
C    -3.650000000     0.095000000    -2.746000000
O    -4.509000000     0.542000000    -1.832000000
C    -4.067000000     0.255000000    -0.506000000
H    -2.987000000     0.046000000    -0.509000000
C    -4.163000000     1.404000000     0.448000000
C    -4.004000000     1.247000000     1.817000000
H    -3.753000000     0.294000000     2.276000000
C    -4.142000000     2.724000000    -0.102000000
H    -3.871000000     2.884000000    -1.143000000
C    -4.223000000     3.852000000     0.716000000
O    -4.198000000     5.181000000     0.271000000
C    -4.187000000     3.694000000     2.075000000
H    -4.114000000     4.599000000     2.674000000
C    -4.000000000     2.410000000     2.618000000
O    -3.713000000     2.291000000     3.925000000
C    -4.171000000     1.232000000     4.714000000
C    -3.162000000     0.503000000     5.339000000
H    -2.131000000     0.845000000     5.330000000
C    -5.435000000     0.754000000     4.766000000
H    -6.245000000     1.212000000     4.205000000
C    -5.761000000    -0.364000000     5.530000000
H    -6.724000000    -0.864000000     5.473000000
C    -4.705000000    -1.056000000     6.208000000
H    -4.943000000    -2.020000000     6.648000000
C    -3.448000000    -0.622000000     6.063000000
O    -2.434000000    -1.341000000     6.633000000
C    -1.308000000    -1.686000000     5.981000000
C    -0.020000000    -1.447000000     6.474000000
H     0.057000000    -0.894000000     7.407000000
C     1.036000000    -1.894000000     5.637000000
O     2.407000000    -1.704000000     6.033000000
C     3.513000000    -2.225000000     5.368000000
C     4.328000000    -1.350000000     4.736000000
H     4.051000000    -0.299000000     4.707000000
C     3.777000000    -3.592000000     5.247000000
H     3.067000000    -4.328000000     5.614000000
C     4.940000000    -4.005000000     4.704000000
H     5.144000000    -5.067000000     4.597000000
C     5.806000000    -3.163000000     4.181000000
H     6.772000000    -3.464000000     3.784000000
C     5.461000000    -1.828000000     4.054000000
O     6.341000000    -0.974000000     3.398000000
C     6.016000000    -0.417000000     2.163000000
C     6.425000000     0.805000000     1.673000000
H     7.165000000     1.401000000     2.200000000
C     5.950000000     1.257000000     0.461000000
O     6.360000000     2.491000000     0.109000000
C     5.818000000     3.100000000    -0.950000000
C     4.615000000     3.836000000    -0.886000000
H     4.075000000     3.890000000     0.055000000
C     6.544000000     3.217000000    -2.138000000
H     7.489000000     2.682000000    -2.169000000
C     6.080000000     3.831000000    -3.218000000
H     6.543000000     3.675000000    -4.189000000
C     4.859000000     4.511000000    -3.178000000
H     4.430000000     5.056000000    -4.015000000
C     4.149000000     4.557000000    -1.958000000
O     2.913000000     5.153000000    -1.857000000
C     1.795000000     4.885000000    -2.586000000
C     0.810000000     5.894000000    -2.818000000
H     1.103000000     6.892000000    -2.501000000
C    -0.390000000     5.515000000    -3.452000000
O    -1.432000000     6.410000000    -3.563000000
C    -2.645000000     6.380000000    -2.906000000
C    -3.797000000     6.773000000    -3.589000000
H    -3.692000000     7.003000000    -4.646000000
C    -5.134000000     6.587000000    -2.992000000
H    -6.073000000     6.680000000    -3.532000000
C    -5.224000000     6.063000000    -1.698000000
H    -6.219000000     5.981000000    -1.269000000
C    -4.093000000     5.686000000    -1.037000000
C    -2.817000000     5.785000000    -1.606000000
H    -1.981000000     5.429000000    -1.011000000
C     0.125000000     0.751000000     2.799000000
H    -0.344000000     0.561000000     3.760000000
C    -0.306000000     0.078000000     1.656000000
H    -1.158000000    -0.595000000     1.709000000
C     0.417000000     0.101000000     0.488000000
H     0.107000000    -0.467000000    -0.403000000
C     1.527000000     0.947000000     0.420000000
H     2.016000000     0.979000000    -0.550000000
C     2.000000000     1.617000000     1.524000000
H     2.930000000     2.176000000     1.465000000
C     1.243000000     1.596000000     2.728000000
C     1.714000000     2.319000000     3.951000000
O     2.339000000     3.325000000     3.863000000
O     1.171000000     2.000000000     5.006000000
O     3.982000000     4.095000000     7.896000000
H     3.624000000     4.828000000     7.395000000
H     3.229000000     3.735000000     8.365000000
O     6.209000000     1.583000000     5.217000000
H     6.363000000     0.652000000     5.054000000
H     5.434000000     1.603000000     5.778000000
O     0.782000000     5.135000000     2.490000000
H     1.315000000     5.604000000     1.848000000
H     1.383000000     4.502000000     2.883000000
O     5.739000000     0.484000000     8.730000000
H     6.118000000     1.312000000     8.435000000
H     4.941000000     0.387000000     8.211000000
O    -0.589000000     3.758000000     0.480000000
H    -0.358000000     3.969000000     1.384000000
H    -0.586000000     2.801000000     0.449000000
O     1.729000000     6.509000000     8.263000000
H     1.208000000     7.224000000     7.897000000
H     1.267000000     5.715000000     7.997000000
O    -1.376000000     6.149000000     4.067000000
H    -1.410000000     5.513000000     4.782000000
H    -0.525000000     6.000000000     3.655000000
O     4.775000000     3.450000000     3.412000000
H     3.903000000     3.057000000     3.453000000
H     5.266000000     3.016000000     4.110000000
O     2.949000000     7.245000000     3.944000000
H     2.718000000     7.072000000     4.856000000
H     2.940000000     8.199000000     3.871000000
O     7.111000000     4.200000000     2.511000000
H     7.370000000     3.633000000     1.785000000
H     6.295000000     3.817000000     2.834000000
O     4.076000000     5.836000000     2.070000000
H     4.417000000     5.076000000     2.542000000
H     3.476000000     6.252000000     2.689000000
O     5.722000000     5.707000000     5.472000000
H     6.488000000     5.187000000     5.716000000
H     6.043000000     6.303000000     4.795000000
O     4.007000000     1.674000000     6.570000000
H     3.936000000     2.422000000     7.163000000
H     3.150000000     1.622000000     6.146000000
O    -0.328000000     1.888000000     7.025000000
H     0.011000000     1.913000000     6.130000000
H     0.265000000     1.297000000     7.489000000
O    -2.819000000     1.481000000     8.626000000
H    -2.045000000     1.667000000     8.095000000
H    -3.557000000     1.658000000     8.042000000
O    -0.038000000     4.779000000     7.007000000
H    -0.052000000     3.950000000     7.486000000
H     0.572000000     4.628000000     6.285000000
O     2.600000000     5.180000000     5.680000000
H     3.538000000     5.363000000     5.616000000
H     2.430000000     4.555000000     4.975000000
O     1.447000000     3.624000000     9.525000000
H     1.274000000     4.434000000    10.004000000
H     0.651000000     3.105000000     9.637000000
O    -0.901000000     7.052000000     0.706000000
H     0.026000000     7.244000000     0.844000000
H    -0.971000000     6.106000000     0.835000000
