215
-1449.96028
C    -4.134000000    -0.870000000    -1.769000000
H    -3.407000000    -0.312000000    -2.354000000
C    -4.582000000    -0.456000000    -0.513000000
C    -5.328000000    -1.338000000     0.300000000
H    -5.451000000    -1.233000000     1.375000000
C    -4.031000000     0.841000000     0.049000000
O    -4.285000000     1.916000000    -0.891000000
H    -2.960000000     0.594000000     0.081000000
O    -4.551000000     1.071000000     1.362000000
C    -3.726000000     1.652000000     2.320000000
C    -3.312000000     0.742000000     3.328000000
H    -3.761000000    -0.234000000     3.493000000
C    -2.206000000     1.122000000     4.078000000
O    -1.629000000     0.196000000     4.896000000
C    -1.652000000     2.409000000     3.955000000
C    -0.586000000     2.828000000     4.925000000
H    -0.729000000     3.906000000     5.027000000
C     0.807000000     2.498000000     4.444000000
C     1.406000000     3.416000000     3.582000000
H     0.919000000     4.383000000     3.482000000
H    -0.728000000     2.443000000     5.937000000
C    -2.254000000     3.318000000     3.037000000
H    -1.937000000     4.356000000     2.971000000
C    -3.286000000     2.946000000     2.181000000
C    -3.752000000     3.913000000     1.161000000
H    -3.716000000     4.946000000     1.514000000
H    -4.811000000     3.752000000     0.950000000
C    -3.033000000     3.847000000    -0.191000000
C    -1.987000000     4.695000000    -0.441000000
H    -1.622000000     5.378000000     0.323000000
C    -3.381000000     2.874000000    -1.120000000
C    -2.709000000     2.825000000    -2.308000000
H    -2.955000000     2.026000000    -3.003000000
C    -1.573000000     3.605000000    -2.495000000
O    -0.862000000     3.407000000    -3.627000000
C     0.278000000     2.546000000    -3.508000000
C     0.422000000     1.519000000    -4.627000000
C     1.715000000     1.121000000    -4.985000000
H     2.613000000     1.508000000    -4.510000000
C    -0.624000000     0.835000000    -5.177000000
H    -1.653000000     1.038000000    -4.890000000
O     1.411000000     3.466000000    -3.471000000
H     0.211000000     2.051000000    -2.528000000
C    -1.189000000     4.557000000    -1.553000000
C     0.056000000     5.403000000    -1.786000000
H     0.001000000     6.353000000    -1.251000000
H     0.068000000     5.682000000    -2.841000000
C     1.288000000     4.641000000    -1.359000000
C     1.711000000     4.799000000    -0.020000000
H     1.195000000     5.383000000     0.738000000
C     1.961000000     3.784000000    -2.215000000
C     2.975000000     2.976000000    -1.729000000
H     3.526000000     2.284000000    -2.361000000
C     3.376000000     3.136000000    -0.446000000
O     4.293000000     2.263000000     0.043000000
C     3.781000000     1.060000000     0.745000000
C     4.499000000    -0.232000000     0.287000000
C     5.103000000    -0.353000000    -0.995000000
H     5.144000000     0.536000000    -1.618000000
C     4.385000000    -1.388000000     1.095000000
H     3.759000000    -1.390000000     1.983000000
O     4.051000000     1.121000000     2.150000000
H     2.700000000     0.957000000     0.574000000
C     2.755000000     3.999000000     0.446000000
C     3.193000000     4.018000000     1.917000000
H     2.932000000     4.998000000     2.322000000
H     4.264000000     3.917000000     2.107000000
C     2.557000000     2.963000000     2.833000000
C     3.070000000     1.661000000     2.973000000
C     2.515000000     0.812000000     3.951000000
H     2.950000000    -0.168000000     4.131000000
C     1.401000000     1.252000000     4.697000000
O     0.695000000     0.290000000     5.287000000
C    -0.370000000    -0.299000000     4.497000000
H    -0.305000000     0.014000000     3.444000000
C    -0.376000000    -1.898000000     4.552000000
C    -1.457000000    -2.558000000     4.007000000
H    -2.317000000    -2.029000000     3.605000000
C     0.814000000    -2.596000000     4.865000000
H     1.673000000    -1.989000000     5.139000000
C     0.760000000    -3.914000000     4.830000000
O     1.888000000    -4.649000000     5.139000000
C    -0.380000000    -4.574000000     4.348000000
H    -0.434000000    -5.657000000     4.413000000
C    -1.499000000    -3.927000000     3.909000000
O    -2.637000000    -4.659000000     3.677000000
C    -3.868000000    -4.098000000     3.428000000
C    -4.385000000    -4.158000000     2.142000000
H    -3.718000000    -4.365000000     1.309000000
C    -4.646000000    -3.771000000     4.482000000
H    -4.110000000    -3.946000000     5.411000000
C    -6.008000000    -3.559000000     4.307000000
H    -6.684000000    -3.420000000     5.146000000
C    -6.568000000    -3.538000000     2.983000000
H    -7.593000000    -3.257000000     2.756000000
C    -5.699000000    -3.740000000     1.936000000
O    -6.253000000    -3.529000000     0.637000000
C    -5.657000000    -2.607000000    -0.182000000
C    -5.290000000    -2.934000000    -1.475000000
H    -5.500000000    -3.898000000    -1.932000000
C    -4.612000000    -2.050000000    -2.270000000
O    -4.392000000    -2.619000000    -3.499000000
C    -4.205000000    -1.913000000    -4.613000000
C    -2.943000000    -1.643000000    -5.064000000
H    -2.081000000    -1.937000000    -4.471000000
C    -5.347000000    -1.643000000    -5.412000000
H    -6.361000000    -1.861000000    -5.087000000
C    -5.125000000    -1.152000000    -6.724000000
H    -5.969000000    -0.980000000    -7.387000000
C    -3.881000000    -0.884000000    -7.163000000
H    -3.684000000    -0.538000000    -8.174000000
C    -2.764000000    -1.120000000    -6.320000000
O    -1.534000000    -0.719000000    -6.846000000
C    -0.460000000    -0.170000000    -6.140000000
C     0.817000000    -0.487000000    -6.545000000
H     0.819000000    -1.167000000    -7.393000000
C     1.943000000     0.157000000    -5.956000000
O     3.230000000    -0.108000000    -6.465000000
C     4.370000000    -0.039000000    -5.729000000
C     4.554000000    -0.681000000    -4.479000000
H     3.688000000    -1.240000000    -4.136000000
C     5.488000000     0.460000000    -6.328000000
H     5.449000000     0.777000000    -7.366000000
C     6.773000000     0.283000000    -5.752000000
H     7.644000000     0.682000000    -6.265000000
C     6.879000000    -0.250000000    -4.482000000
H     7.820000000    -0.373000000    -3.950000000
C     5.755000000    -0.827000000    -3.876000000
O     6.012000000    -1.575000000    -2.704000000
C     5.360000000    -1.572000000    -1.463000000
C     5.285000000    -2.752000000    -0.646000000
H     5.510000000    -3.738000000    -1.046000000
C     4.859000000    -2.666000000     0.627000000
O     4.823000000    -3.819000000     1.358000000
C     4.567000000    -3.853000000     2.710000000
C     5.637000000    -3.643000000     3.550000000
H     6.560000000    -3.227000000     3.154000000
C     5.428000000    -3.709000000     4.914000000
H     6.198000000    -3.376000000     5.605000000
C     4.168000000    -4.116000000     5.393000000
H     3.919000000    -4.140000000     6.451000000
C     3.087000000    -4.390000000     4.517000000
C     3.274000000    -4.249000000     3.178000000
H     2.472000000    -4.407000000     2.461000000
C    -0.766000000    -2.084000000    -0.685000000
H    -1.332000000    -2.618000000    -1.444000000
C    -0.855000000    -0.738000000    -0.606000000
H    -1.445000000    -0.290000000    -1.402000000
C    -0.109000000    -0.022000000     0.330000000
H    -0.216000000     1.087000000     0.319000000
C     0.708000000    -0.688000000     1.224000000
H     1.178000000    -0.084000000     1.996000000
C     0.795000000    -2.046000000     1.174000000
H     1.406000000    -2.599000000     1.882000000
C     0.047000000    -2.770000000     0.222000000
C     0.098000000    -4.257000000     0.138000000
O     0.902000000    -4.906000000     0.739000000
O    -0.839000000    -4.791000000    -0.413000000
O    -0.522000000    -7.992000000    -2.085000000
H    -0.836000000    -8.094000000    -1.187000000
H    -1.255000000    -7.591000000    -2.552000000
O    -3.120000000    -7.409000000     5.187000000
H    -2.603000000    -6.618000000     5.031000000
H    -3.787000000    -7.399000000     4.500000000
O     1.158000000    -7.342000000     1.671000000
H     1.405000000    -6.507000000     1.274000000
H     0.206000000    -7.380000000     1.577000000
O     3.262000000    -4.206000000    -3.604000000
H     3.889000000    -4.484000000    -2.936000000
H     2.405000000    -4.402000000    -3.224000000
O     2.303000000    -8.204000000     4.245000000
H     2.099000000    -7.779000000     3.411000000
H     1.515000000    -8.080000000     4.775000000
O     4.478000000    -4.490000000    -5.953000000
H     4.058000000    -4.250000000    -5.127000000
H     3.768000000    -4.481000000    -6.594000000
O     4.642000000    -5.657000000    -1.944000000
H     5.198000000    -6.172000000    -1.358000000
H     3.766000000    -5.726000000    -1.564000000
O    -0.652000000   -10.882000000     1.278000000
H    -1.249000000   -10.467000000     1.901000000
H    -0.236000000   -11.585000000     1.778000000
O    -4.404000000    -7.068000000    -0.592000000
H    -4.219000000    -7.982000000    -0.376000000
H    -4.167000000    -6.987000000    -1.516000000
O     5.221000000    -7.841000000     2.386000000
H     5.559000000    -8.736000000     2.385000000
H     5.082000000    -7.636000000     1.461000000
O    -3.558000000    -7.715000000    -3.255000000
H    -3.155000000    -6.968000000    -3.697000000
H    -4.429000000    -7.784000000    -3.646000000
O     1.252000000    -8.765000000    -4.057000000
H     0.976000000    -8.380000000    -3.226000000
H     0.860000000    -9.638000000    -4.059000000
O    -1.823000000    -4.816000000    -5.560000000
H    -2.263000000    -4.854000000    -4.711000000
H    -1.080000000    -5.412000000    -5.473000000
O     2.939000000    -9.349000000     1.523000000
H     3.469000000    -8.970000000     2.223000000
H     2.074000000    -8.957000000     1.637000000
O    -0.212000000    -7.050000000    -5.490000000
H     0.006000000    -7.080000000    -6.422000000
H     0.432000000    -7.624000000    -5.075000000
O     1.592000000    -6.374000000    -1.735000000
H     1.183000000    -5.743000000    -1.144000000
H     0.918000000    -7.039000000    -1.878000000
O     3.688000000    -8.628000000    -1.080000000
H     3.124000000    -7.862000000    -1.193000000
H     3.415000000    -9.005000000    -0.243000000
O    -1.240000000    -7.151000000     0.683000000
H    -2.149000000    -7.033000000     0.959000000
H    -0.967000000    -6.285000000     0.381000000
O    -2.505000000    -4.786000000    -3.000000000
H    -1.861000000    -4.703000000    -2.297000000
H    -3.229000000    -4.221000000    -2.729000000
