215
-1446.18401
C     1.111000000    -2.728000000     4.129000000
H     1.929000000    -3.113000000     3.526000000
C    -0.153000000    -2.550000000     3.594000000
C    -1.136000000    -1.890000000     4.261000000
H    -2.120000000    -1.824000000     3.803000000
C    -0.519000000    -3.246000000     2.243000000
O     0.377000000    -4.395000000     2.012000000
H    -0.260000000    -2.485000000     1.493000000
O    -1.807000000    -3.772000000     2.240000000
C    -2.607000000    -3.607000000     1.103000000
C    -3.570000000    -2.616000000     1.148000000
H    -3.874000000    -2.228000000     2.117000000
C    -4.203000000    -2.217000000    -0.036000000
O    -5.068000000    -1.167000000     0.024000000
C    -3.807000000    -2.812000000    -1.277000000
C    -4.422000000    -2.323000000    -2.512000000
H    -4.395000000    -3.130000000    -3.247000000
C    -3.722000000    -1.108000000    -3.074000000
C    -2.710000000    -1.330000000    -4.039000000
H    -2.453000000    -2.331000000    -4.377000000
H    -5.483000000    -2.195000000    -2.288000000
C    -2.790000000    -3.822000000    -1.280000000
H    -2.434000000    -4.258000000    -2.210000000
C    -2.163000000    -4.212000000    -0.097000000
C    -1.169000000    -5.382000000    -0.145000000
H    -1.401000000    -6.070000000    -0.961000000
H    -1.237000000    -6.036000000     0.726000000
C     0.223000000    -4.804000000    -0.334000000
C     0.795000000    -4.605000000    -1.626000000
H     0.187000000    -4.954000000    -2.457000000
C     0.953000000    -4.404000000     0.741000000
C     2.243000000    -3.880000000     0.616000000
H     2.795000000    -3.566000000     1.498000000
C     2.837000000    -3.750000000    -0.632000000
O     4.030000000    -3.043000000    -0.652000000
C     4.044000000    -1.660000000    -1.118000000
C     5.144000000    -0.826000000    -0.386000000
C     5.730000000     0.296000000    -0.865000000
H     5.720000000     0.537000000    -1.925000000
C     5.353000000    -1.196000000     0.943000000
H     4.803000000    -2.042000000     1.348000000
O     4.201000000    -1.448000000    -2.503000000
H     3.190000000    -1.010000000    -0.881000000
C     2.094000000    -4.123000000    -1.790000000
C     2.589000000    -3.779000000    -3.267000000
H     2.202000000    -4.545000000    -3.941000000
H     3.677000000    -3.873000000    -3.286000000
C     2.208000000    -2.333000000    -3.572000000
C     1.041000000    -2.072000000    -4.205000000
H     0.397000000    -2.897000000    -4.498000000
C     3.035000000    -1.265000000    -3.280000000
C     2.695000000     0.099000000    -3.563000000
H     3.383000000     0.906000000    -3.327000000
C     1.463000000     0.312000000    -4.144000000
O     1.047000000     1.579000000    -4.350000000
C    -0.006000000     2.115000000    -3.548000000
C     0.237000000     3.483000000    -3.041000000
C     1.569000000     3.854000000    -2.845000000
H     2.341000000     3.130000000    -3.093000000
C    -0.799000000     4.342000000    -2.607000000
H    -1.865000000     4.162000000    -2.724000000
O    -1.315000000     2.050000000    -4.234000000
H    -0.153000000     1.461000000    -2.676000000
C     0.597000000    -0.732000000    -4.488000000
C    -0.715000000    -0.498000000    -5.328000000
H    -0.950000000    -1.371000000    -5.940000000
H    -0.567000000     0.352000000    -5.998000000
C    -1.910000000    -0.298000000    -4.406000000
C    -2.240000000     1.016000000    -3.981000000
C    -3.263000000     1.254000000    -3.153000000
H    -3.460000000     2.291000000    -2.896000000
C    -3.998000000     0.195000000    -2.619000000
O    -4.892000000     0.417000000    -1.652000000
C    -4.557000000     0.120000000    -0.275000000
H    -3.477000000    -0.089000000    -0.306000000
C    -4.844000000     1.181000000     0.835000000
C    -4.835000000     0.909000000     2.206000000
H    -4.842000000    -0.143000000     2.476000000
C    -4.896000000     2.518000000     0.398000000
H    -4.774000000     2.690000000    -0.669000000
C    -5.054000000     3.554000000     1.266000000
O    -5.092000000     4.810000000     0.702000000
C    -5.100000000     3.318000000     2.598000000
H    -5.218000000     4.147000000     3.291000000
C    -4.975000000     1.982000000     3.096000000
O    -5.046000000     1.853000000     4.439000000
C    -4.706000000     0.727000000     5.094000000
C    -3.415000000     0.496000000     5.465000000
H    -2.707000000     1.270000000     5.181000000
C    -5.701000000    -0.202000000     5.408000000
H    -6.731000000     0.066000000     5.184000000
C    -5.433000000    -1.376000000     6.142000000
H    -6.250000000    -1.965000000     6.551000000
C    -4.089000000    -1.581000000     6.509000000
H    -3.788000000    -2.478000000     7.044000000
C    -3.081000000    -0.703000000     6.107000000
O    -1.736000000    -0.922000000     6.434000000
C    -0.859000000    -1.512000000     5.548000000
C     0.381000000    -1.671000000     6.117000000
H     0.617000000    -1.196000000     7.066000000
C     1.360000000    -2.180000000     5.402000000
O     2.626000000    -2.251000000     5.923000000
C     3.763000000    -2.455000000     5.261000000
C     4.504000000    -1.415000000     4.720000000
H     4.219000000    -0.391000000     4.948000000
C     4.214000000    -3.744000000     4.989000000
H     3.790000000    -4.587000000     5.527000000
C     5.311000000    -4.002000000     4.166000000
H     5.725000000    -5.003000000     4.075000000
C     5.957000000    -2.999000000     3.474000000
H     6.818000000    -3.139000000     2.826000000
C     5.549000000    -1.694000000     3.812000000
O     6.238000000    -0.644000000     3.164000000
C     6.028000000    -0.336000000     1.827000000
C     6.541000000     0.868000000     1.303000000
H     6.930000000     1.542000000     2.062000000
C     6.366000000     1.186000000    -0.038000000
O     6.816000000     2.388000000    -0.510000000
C     6.191000000     3.098000000    -1.449000000
C     5.083000000     3.860000000    -1.083000000
H     4.722000000     3.798000000    -0.060000000
C     6.654000000     3.199000000    -2.780000000
H     7.490000000     2.568000000    -3.067000000
C     5.998000000     4.013000000    -3.718000000
H     6.359000000     3.990000000    -4.744000000
C     4.856000000     4.754000000    -3.381000000
H     4.374000000     5.427000000    -4.084000000
C     4.397000000     4.710000000    -2.032000000
O     3.252000000     5.409000000    -1.769000000
C     1.950000000     4.987000000    -2.129000000
C     0.971000000     5.872000000    -1.892000000
H     1.234000000     6.857000000    -1.516000000
C    -0.420000000     5.564000000    -2.099000000
O    -1.361000000     6.488000000    -1.782000000
C    -2.730000000     6.212000000    -1.705000000
C    -3.423000000     6.190000000    -2.920000000
H    -2.975000000     6.468000000    -3.870000000
C    -4.650000000     5.538000000    -2.958000000
H    -5.237000000     5.494000000    -3.872000000
C    -5.171000000     5.082000000    -1.742000000
H    -6.188000000     4.699000000    -1.719000000
C    -4.512000000     5.162000000    -0.493000000
C    -3.295000000     5.755000000    -0.533000000
H    -2.715000000     5.796000000     0.385000000
C     1.785000000     1.699000000     1.004000000
H     2.799000000     1.788000000     1.385000000
C     1.224000000     0.472000000     0.605000000
H     1.888000000    -0.387000000     0.564000000
C    -0.048000000     0.441000000    -0.017000000
H    -0.501000000    -0.495000000    -0.322000000
C    -0.753000000     1.685000000    -0.047000000
H    -1.741000000     1.771000000    -0.492000000
C    -0.142000000     2.873000000     0.269000000
H    -0.625000000     3.830000000     0.092000000
C     1.138000000     2.863000000     0.818000000
C     1.731000000     4.156000000     1.391000000
O     0.947000000     5.039000000     1.659000000
O     2.861000000     4.258000000     1.805000000
O     1.188000000     9.473000000    -0.604000000
H     1.548000000    10.210000000    -0.111000000
H     1.024000000     8.800000000     0.056000000
O     4.427000000     8.562000000    -0.525000000
H     4.461000000     7.822000000     0.081000000
H     3.743000000     9.130000000    -0.171000000
O     0.474000000     8.737000000     3.378000000
H     0.474000000     9.628000000     3.729000000
H     0.010000000     8.220000000     4.037000000
O     4.878000000     2.584000000     5.078000000
H     5.562000000     1.977000000     5.361000000
H     4.072000000     2.069000000     5.114000000
O    -1.579000000     5.089000000     2.675000000
H    -1.760000000     4.179000000     2.912000000
H    -0.865000000     5.033000000     2.040000000
O     4.033000000     5.831000000     6.102000000
H     3.386000000     5.936000000     5.405000000
H     3.516000000     5.813000000     6.908000000
O     0.028000000     2.923000000     5.456000000
H    -0.386000000     2.681000000     6.285000000
H     0.425000000     3.777000000     5.627000000
O     5.148000000     4.042000000     2.715000000
H     4.927000000     3.704000000     3.583000000
H     4.306000000     4.117000000     2.266000000
O     3.818000000     8.252000000     3.281000000
H     4.142000000     7.591000000     2.669000000
H     2.896000000     8.031000000     3.406000000
O     0.169000000     5.635000000     5.949000000
H    -0.011000000     6.511000000     6.290000000
H     0.913000000     5.755000000     5.360000000
O     7.376000000     5.421000000     1.910000000
H     8.150000000     4.867000000     1.813000000
H     6.692000000     4.826000000     2.216000000
O    -2.431000000     7.925000000     2.658000000
H    -2.144000000     7.012000000     2.671000000
H    -3.290000000     7.900000000     2.235000000
O    -1.663000000     9.151000000     0.197000000
H    -1.976000000     8.967000000     1.082000000
H    -0.994000000     8.486000000     0.036000000
O     4.527000000     6.471000000     1.084000000
H     3.753000000     5.914000000     1.164000000
H     5.248000000     5.925000000     1.397000000
O     2.119000000     1.028000000     5.823000000
H     1.961000000     0.091000000     5.942000000
H     1.246000000     1.406000000     5.721000000
O    -1.222000000     2.406000000     3.032000000
H    -0.608000000     2.363000000     2.299000000
H    -0.671000000     2.572000000     3.797000000
O    -2.733000000     4.946000000     5.082000000
H    -2.059000000     4.687000000     5.710000000
H    -2.244000000     5.246000000     4.316000000
O     2.042000000     5.803000000     4.133000000
H     1.613000000     5.847000000     3.278000000
H     2.526000000     4.977000000     4.115000000
O     0.462000000     7.476000000     1.080000000
H     0.499000000     7.769000000     1.991000000
H     0.697000000     6.549000000     1.117000000
