215
-1447.58733
C     1.760000000    -1.992000000     4.810000000
H     2.671000000    -2.507000000     4.518000000
C     0.477000000    -2.194000000     4.237000000
C    -0.606000000    -1.366000000     4.660000000
H    -1.532000000    -1.458000000     4.099000000
C     0.205000000    -3.241000000     3.039000000
O     1.344000000    -4.040000000     2.796000000
H     0.024000000    -2.677000000     2.112000000
O    -1.037000000    -4.053000000     3.177000000
C    -1.761000000    -4.124000000     2.038000000
C    -2.855000000    -3.212000000     1.935000000
H    -3.009000000    -2.627000000     2.838000000
C    -3.553000000    -3.129000000     0.747000000
O    -4.551000000    -2.149000000     0.647000000
C    -3.198000000    -3.817000000    -0.397000000
C    -3.791000000    -3.622000000    -1.798000000
H    -3.787000000    -4.556000000    -2.363000000
C    -3.303000000    -2.418000000    -2.489000000
C    -2.357000000    -2.575000000    -3.497000000
H    -1.975000000    -3.563000000    -3.739000000
H    -4.850000000    -3.407000000    -1.637000000
C    -2.008000000    -4.616000000    -0.280000000
H    -1.662000000    -5.282000000    -1.067000000
C    -1.305000000    -4.762000000     0.896000000
C    -0.114000000    -5.692000000     0.961000000
H    -0.175000000    -6.456000000     0.183000000
H    -0.006000000    -6.214000000     1.914000000
C     1.135000000    -4.875000000     0.536000000
C     1.460000000    -4.775000000    -0.834000000
H     1.036000000    -5.442000000    -1.581000000
C     1.802000000    -4.071000000     1.469000000
C     2.926000000    -3.339000000     1.141000000
H     3.427000000    -2.750000000     1.905000000
C     3.294000000    -3.304000000    -0.203000000
O     4.377000000    -2.522000000    -0.529000000
C     4.100000000    -1.265000000    -1.167000000
C     4.894000000    -0.089000000    -0.682000000
C     5.226000000     0.962000000    -1.531000000
H     5.036000000     0.856000000    -2.596000000
C     5.047000000     0.078000000     0.690000000
H     4.617000000    -0.668000000     1.353000000
O     4.208000000    -1.379000000    -2.656000000
H     3.032000000    -1.065000000    -0.999000000
C     2.571000000    -3.965000000    -1.218000000
C     2.997000000    -3.989000000    -2.642000000
H     2.647000000    -4.911000000    -3.111000000
H     4.086000000    -3.939000000    -2.702000000
C     2.406000000    -2.740000000    -3.442000000
C     1.188000000    -2.733000000    -4.056000000
H     0.639000000    -3.666000000    -4.158000000
C     3.033000000    -1.445000000    -3.381000000
C     2.441000000    -0.335000000    -3.915000000
H     2.979000000     0.609000000    -3.880000000
C     1.138000000    -0.349000000    -4.446000000
O     0.545000000     0.776000000    -4.824000000
C    -0.422000000     1.245000000    -3.914000000
C    -0.398000000     2.795000000    -3.721000000
C     0.811000000     3.446000000    -3.432000000
H     1.699000000     2.821000000    -3.479000000
C    -1.556000000     3.593000000    -3.663000000
H    -2.464000000     3.017000000    -3.825000000
O    -1.707000000     0.874000000    -4.525000000
H    -0.402000000     0.824000000    -2.898000000
C     0.539000000    -1.610000000    -4.585000000
C    -0.817000000    -1.795000000    -5.305000000
H    -0.914000000    -2.853000000    -5.558000000
H    -0.809000000    -1.236000000    -6.243000000
C    -1.942000000    -1.524000000    -4.327000000
C    -2.400000000    -0.244000000    -4.092000000
C    -3.405000000    -0.056000000    -3.184000000
H    -3.678000000     0.984000000    -3.025000000
C    -3.804000000    -1.153000000    -2.334000000
O    -4.631000000    -0.744000000    -1.310000000
C    -4.223000000    -0.858000000    -0.008000000
H    -3.128000000    -0.851000000    -0.109000000
C    -4.829000000     0.284000000     0.870000000
C    -5.330000000     0.123000000     2.194000000
H    -5.332000000    -0.870000000     2.637000000
C    -4.654000000     1.530000000     0.365000000
H    -4.370000000     1.675000000    -0.675000000
C    -5.136000000     2.624000000     1.114000000
O    -4.902000000     3.927000000     0.671000000
C    -5.565000000     2.463000000     2.395000000
H    -5.782000000     3.385000000     2.927000000
C    -5.672000000     1.245000000     2.980000000
O    -5.875000000     1.026000000     4.293000000
C    -4.980000000     0.438000000     5.160000000
C    -3.654000000     0.866000000     5.147000000
H    -3.311000000     1.693000000     4.531000000
C    -5.426000000    -0.573000000     5.977000000
H    -6.443000000    -0.951000000     5.908000000
C    -4.506000000    -1.308000000     6.683000000
H    -4.847000000    -2.201000000     7.200000000
C    -3.161000000    -0.980000000     6.625000000
H    -2.480000000    -1.550000000     7.252000000
C    -2.725000000     0.139000000     5.942000000
O    -1.419000000     0.499000000     5.979000000
C    -0.393000000    -0.412000000     5.666000000
C     0.845000000    -0.132000000     6.177000000
H     0.972000000     0.784000000     6.748000000
C     1.920000000    -0.941000000     5.699000000
O     3.205000000    -0.563000000     6.058000000
C     4.335000000    -0.458000000     5.277000000
C     4.377000000     0.397000000     4.224000000
H     3.423000000     0.814000000     3.910000000
C     5.483000000    -0.959000000     5.763000000
H     5.372000000    -1.689000000     6.560000000
C     6.767000000    -0.598000000     5.261000000
H     7.695000000    -1.007000000     5.651000000
C     6.806000000     0.270000000     4.212000000
H     7.771000000     0.534000000     3.787000000
C     5.562000000     0.709000000     3.610000000
O     5.639000000     1.586000000     2.549000000
C     5.551000000     1.301000000     1.228000000
C     5.822000000     2.333000000     0.345000000
H     6.227000000     3.275000000     0.706000000
C     5.696000000     2.166000000    -1.038000000
O     6.147000000     3.059000000    -1.987000000
C     5.329000000     3.848000000    -2.784000000
C     4.118000000     4.286000000    -2.369000000
H     3.722000000     3.910000000    -1.429000000
C     5.836000000     4.282000000    -4.024000000
H     6.762000000     3.835000000    -4.376000000
C     5.062000000     5.147000000    -4.839000000
H     5.384000000     5.558000000    -5.793000000
C     3.797000000     5.437000000    -4.460000000
H     3.197000000     6.116000000    -5.060000000
C     3.279000000     5.008000000    -3.253000000
O     2.030000000     5.422000000    -2.786000000
C     0.874000000     4.790000000    -3.141000000
C    -0.268000000     5.576000000    -3.086000000
H    -0.154000000     6.609000000    -2.766000000
C    -1.523000000     4.960000000    -3.341000000
O    -2.695000000     5.684000000    -3.127000000
C    -3.826000000     5.127000000    -2.565000000
C    -4.997000000     4.971000000    -3.321000000
H    -5.122000000     5.428000000    -4.299000000
C    -6.041000000     4.307000000    -2.737000000
H    -6.865000000     4.040000000    -3.394000000
C    -6.025000000     3.975000000    -1.402000000
H    -6.918000000     3.505000000    -0.997000000
C    -4.883000000     4.164000000    -0.672000000
C    -3.727000000     4.654000000    -1.235000000
H    -2.828000000     4.764000000    -0.634000000
C     2.196000000     2.218000000     1.045000000
H     3.106000000     2.366000000     1.619000000
C     1.791000000     0.867000000     0.925000000
H     2.412000000     0.060000000     1.307000000
C     0.624000000     0.597000000     0.270000000
H     0.319000000    -0.397000000     0.023000000
C    -0.171000000     1.583000000    -0.229000000
H    -1.080000000     1.301000000    -0.754000000
C     0.189000000     2.903000000    -0.006000000
H    -0.419000000     3.718000000    -0.391000000
C     1.388000000     3.254000000     0.616000000
C     1.790000000     4.661000000     0.931000000
O     1.004000000     5.569000000     0.797000000
O     2.982000000     4.890000000     0.993000000
O     0.255000000     9.352000000     0.324000000
H    -0.330000000     8.862000000     0.902000000
H     0.905000000     8.709000000     0.041000000
O     5.031000000     6.590000000     1.198000000
H     4.183000000     6.216000000     0.961000000
H     5.337000000     6.049000000     1.926000000
O     1.740000000     8.009000000    -3.875000000
H     2.585000000     8.458000000    -3.896000000
H     1.952000000     7.109000000    -3.627000000
O    -2.376000000     3.621000000     2.157000000
H    -1.729000000     3.015000000     2.519000000
H    -3.055000000     3.056000000     1.789000000
O     5.681000000     2.903000000     5.640000000
H     5.198000000     2.415000000     6.307000000
H     5.002000000     3.289000000     5.087000000
O     4.606000000     4.369000000     3.168000000
H     4.049000000     4.312000000     2.392000000
H     3.995000000     4.338000000     3.904000000
O     4.404000000     8.644000000     3.642000000
H     3.746000000     7.955000000     3.546000000
H     5.150000000     8.208000000     4.054000000
O     6.458000000     8.357000000    -0.252000000
H     6.381000000     9.029000000     0.425000000
H     5.989000000     7.603000000     0.104000000
O     3.822000000     9.858000000     1.188000000
H     3.872000000     9.351000000     1.998000000
H     3.350000000     9.290000000     0.579000000
O     7.574000000     3.947000000     3.134000000
H     6.658000000     4.223000000     3.143000000
H     7.604000000     3.196000000     3.726000000
O    -2.475000000     7.643000000    -1.244000000
H    -2.101000000     7.124000000    -0.532000000
H    -2.747000000     6.996000000    -1.895000000
O    -1.180000000     8.264000000     2.572000000
H    -1.561000000     7.449000000     2.247000000
H    -0.370000000     7.995000000     3.005000000
O    -2.644000000     5.497000000     3.978000000
H    -2.749000000     4.705000000     3.452000000
H    -3.515000000     5.893000000     3.991000000
O     2.208000000     7.454000000    -0.406000000
H     2.301000000     7.117000000    -1.297000000
H     1.938000000     6.694000000     0.110000000
O     2.606000000     3.699000000     5.158000000
H     2.496000000     3.745000000     6.108000000
H     1.834000000     4.144000000     4.806000000
O    -0.654000000     1.702000000     2.949000000
H    -0.118000000     1.240000000     2.305000000
H    -0.333000000     1.392000000     3.795000000
O     0.537000000     5.136000000     4.554000000
H     0.441000000     5.555000000     5.409000000
H    -0.349000000     5.125000000     4.192000000
O     2.079000000     6.940000000     3.309000000
H     1.990000000     6.483000000     2.473000000
H     1.426000000     6.530000000     3.876000000
O    -1.521000000     5.917000000     1.076000000
H    -1.788000000     5.174000000     1.616000000
H    -0.573000000     5.819000000     0.985000000
