215
-1422.38023
C     2.465000000    -0.653000000     4.236000000
H     3.152000000    -0.900000000     3.431000000
C     1.219000000    -1.343000000     4.248000000
C     0.188000000    -0.961000000     5.150000000
H    -0.795000000    -1.419000000     5.087000000
C     0.907000000    -2.437000000     3.234000000
O     2.084000000    -3.283000000     2.924000000
H     0.682000000    -1.829000000     2.345000000
O    -0.194000000    -3.233000000     3.761000000
C    -1.211000000    -3.511000000     2.835000000
C    -2.361000000    -2.682000000     2.843000000
H    -2.425000000    -1.955000000     3.649000000
C    -3.228000000    -2.696000000     1.763000000
O    -4.232000000    -1.740000000     1.782000000
C    -2.994000000    -3.600000000     0.707000000
C    -4.045000000    -3.774000000    -0.399000000
H    -4.006000000    -4.757000000    -0.874000000
C    -3.660000000    -2.774000000    -1.442000000
C    -3.013000000    -3.182000000    -2.618000000
H    -2.778000000    -4.240000000    -2.699000000
H    -5.072000000    -3.708000000    -0.031000000
C    -1.921000000    -4.418000000     0.693000000
H    -1.740000000    -5.161000000    -0.080000000
C    -0.990000000    -4.402000000     1.747000000
C     0.251000000    -5.228000000     1.695000000
H     0.131000000    -6.175000000     1.165000000
H     0.527000000    -5.478000000     2.722000000
C     1.370000000    -4.576000000     0.977000000
C     1.581000000    -4.747000000    -0.321000000
H     0.826000000    -5.334000000    -0.837000000
C     2.218000000    -3.663000000     1.620000000
C     3.354000000    -3.177000000     1.019000000
H     4.108000000    -2.739000000     1.667000000
C     3.570000000    -3.413000000    -0.341000000
O     4.433000000    -2.612000000    -0.982000000
C     3.994000000    -1.437000000    -1.609000000
C     4.745000000    -0.206000000    -1.277000000
C     4.556000000     0.880000000    -2.093000000
H     3.867000000     0.843000000    -2.934000000
C     5.561000000    -0.045000000    -0.119000000
H     5.682000000    -0.889000000     0.556000000
O     3.819000000    -1.646000000    -3.060000000
H     2.998000000    -1.160000000    -1.233000000
C     2.672000000    -4.207000000    -1.043000000
C     2.639000000    -4.314000000    -2.580000000
H     2.243000000    -5.307000000    -2.803000000
H     3.624000000    -4.375000000    -3.048000000
C     2.015000000    -3.141000000    -3.271000000
C     0.672000000    -3.353000000    -3.704000000
H     0.268000000    -4.359000000    -3.640000000
C     2.513000000    -1.826000000    -3.489000000
C     1.771000000    -0.778000000    -3.999000000
H     2.243000000     0.172000000    -4.236000000
C     0.449000000    -1.069000000    -4.378000000
O    -0.236000000    -0.013000000    -4.913000000
C    -1.064000000     0.643000000    -3.933000000
C    -0.966000000     2.163000000    -4.031000000
C     0.144000000     2.832000000    -4.453000000
H     1.106000000     2.326000000    -4.477000000
C    -2.130000000     2.848000000    -3.782000000
H    -3.099000000     2.404000000    -3.569000000
O    -2.422000000     0.262000000    -4.001000000
H    -0.640000000     0.324000000    -2.970000000
C    -0.119000000    -2.339000000    -4.228000000
C    -1.582000000    -2.693000000    -4.619000000
H    -1.588000000    -3.767000000    -4.818000000
H    -1.831000000    -2.184000000    -5.552000000
C    -2.540000000    -2.248000000    -3.574000000
C    -2.974000000    -0.900000000    -3.446000000
C    -3.743000000    -0.502000000    -2.378000000
H    -3.926000000     0.564000000    -2.271000000
C    -4.029000000    -1.415000000    -1.368000000
O    -4.807000000    -0.872000000    -0.306000000
C    -4.077000000    -0.631000000     0.886000000
H    -3.005000000    -0.641000000     0.638000000
C    -4.348000000     0.745000000     1.483000000
C    -4.066000000     0.945000000     2.879000000
H    -3.608000000     0.136000000     3.443000000
C    -4.896000000     1.835000000     0.678000000
H    -5.261000000     1.579000000    -0.313000000
C    -4.981000000     3.158000000     1.228000000
O    -5.479000000     4.192000000     0.421000000
C    -4.823000000     3.306000000     2.666000000
H    -4.856000000     4.335000000     3.013000000
C    -4.405000000     2.178000000     3.491000000
O    -4.296000000     2.436000000     4.902000000
C    -3.697000000     1.548000000     5.856000000
C    -2.293000000     1.293000000     5.920000000
H    -1.696000000     1.706000000     5.111000000
C    -4.454000000     1.050000000     6.909000000
H    -5.440000000     1.457000000     7.121000000
C    -3.934000000     0.160000000     7.866000000
H    -4.614000000    -0.141000000     8.659000000
C    -2.530000000    -0.130000000     7.890000000
H    -2.097000000    -0.789000000     8.639000000
C    -1.716000000     0.460000000     6.950000000
O    -0.407000000     0.400000000     7.079000000
C     0.482000000     0.053000000     6.054000000
C     1.755000000     0.673000000     6.048000000
H     2.028000000     1.335000000     6.866000000
C     2.745000000     0.323000000     5.145000000
O     3.936000000     1.032000000     5.211000000
C     5.017000000     0.715000000     4.486000000
C     5.309000000     1.241000000     3.274000000
H     4.631000000     1.992000000     2.877000000
C     5.684000000    -0.446000000     4.995000000
H     5.355000000    -1.024000000     5.855000000
C     6.862000000    -0.846000000     4.344000000
H     7.390000000    -1.721000000     4.716000000
C     7.181000000    -0.250000000     3.068000000
H     8.019000000    -0.594000000     2.467000000
C     6.331000000     0.725000000     2.530000000
O     6.760000000     1.319000000     1.398000000
C     6.248000000     1.152000000     0.175000000
C     6.011000000     2.252000000    -0.687000000
H     6.574000000     3.154000000    -0.459000000
C     5.152000000     2.120000000    -1.831000000
O     5.154000000     3.254000000    -2.635000000
C     4.486000000     3.432000000    -3.789000000
C     3.350000000     4.230000000    -3.787000000
H     2.935000000     4.681000000    -2.889000000
C     4.962000000     2.928000000    -4.939000000
H     5.868000000     2.328000000    -4.968000000
C     4.298000000     3.194000000    -6.142000000
H     4.581000000     2.597000000    -7.005000000
C     3.029000000     3.806000000    -6.153000000
H     2.458000000     3.739000000    -7.075000000
C     2.524000000     4.332000000    -4.957000000
O     1.265000000     4.854000000    -4.936000000
C     0.123000000     4.227000000    -4.579000000
C    -1.014000000     4.890000000    -4.270000000
H    -1.087000000     5.967000000    -4.398000000
C    -2.146000000     4.256000000    -3.813000000
O    -3.319000000     5.087000000    -3.665000000
C    -4.455000000     4.683000000    -3.039000000
C    -5.687000000     4.384000000    -3.666000000
H    -5.733000000     4.465000000    -4.749000000
C    -6.814000000     3.979000000    -2.905000000
H    -7.757000000     3.769000000    -3.405000000
C    -6.724000000     3.948000000    -1.521000000
H    -7.609000000     3.818000000    -0.904000000
C    -5.498000000     4.247000000    -0.956000000
C    -4.427000000     4.664000000    -1.691000000
H    -3.545000000     4.963000000    -1.130000000
C     1.914000000     1.909000000     0.256000000
H     2.992000000     2.013000000     0.355000000
C     1.529000000     0.572000000     0.247000000
H     2.171000000    -0.239000000     0.583000000
C     0.254000000     0.241000000    -0.163000000
H     0.002000000    -0.835000000    -0.229000000
C    -0.672000000     1.187000000    -0.524000000
H    -1.661000000     0.845000000    -0.818000000
C    -0.276000000     2.500000000    -0.573000000
H    -1.009000000     3.282000000    -0.753000000
C     0.990000000     2.924000000    -0.105000000
C     1.464000000     4.370000000    -0.063000000
O     0.692000000     5.277000000    -0.309000000
O     2.434000000     4.667000000     0.593000000
O     2.795000000     7.713000000    -0.122000000
H     2.440000000     6.852000000    -0.340000000
H     2.042000000     8.209000000     0.197000000
O    -1.778000000     8.725000000    -2.792000000
H    -1.371000000     9.100000000    -2.012000000
H    -1.183000000     8.025000000    -3.061000000
O     0.318000000     6.933000000     2.069000000
H    -0.566000000     6.960000000     1.701000000
H     0.817000000     6.397000000     1.453000000
O     7.141000000     4.649000000     1.980000000
H     7.343000000     5.569000000     2.152000000
H     6.208000000     4.646000000     1.764000000
O     3.263000000     5.099000000     3.237000000
H     3.205000000     6.042000000     3.085000000
H     2.892000000     4.705000000     2.447000000
O    -2.485000000     5.294000000     2.132000000
H    -2.426000000     5.595000000     3.038000000
H    -2.044000000     4.444000000     2.132000000
O     2.557000000     9.227000000    -3.206000000
H     2.131000000     8.429000000    -2.893000000
H     2.052000000     9.481000000    -3.978000000
O     2.956000000     7.784000000     2.830000000
H     2.412000000     8.339000000     2.272000000
H     3.704000000     8.336000000     3.060000000
O    -1.612000000     6.433000000    -0.186000000
H    -2.096000000     5.949000000     0.483000000
H    -0.780000000     5.966000000    -0.264000000
O     4.857000000     5.501000000     0.747000000
H     4.060000000     4.975000000     0.806000000
H     4.573000000     6.323000000     0.347000000
O     5.161000000     7.531000000    -3.014000000
H     5.419000000     8.378000000    -3.376000000
H     4.268000000     7.396000000    -3.330000000
O    -0.137000000     5.487000000     4.536000000
H     0.363000000     6.115000000     4.014000000
H     0.448000000     4.736000000     4.633000000
O     1.239000000     3.171000000     4.663000000
H     1.887000000     3.001000000     5.347000000
H     1.758000000     3.322000000     3.873000000
O     5.686000000     4.383000000     4.433000000
H     6.039000000     5.069000000     3.866000000
H     4.753000000     4.351000000     4.219000000
O     0.752000000     6.939000000    -2.579000000
H     0.789000000     6.271000000    -3.264000000
H     0.671000000     6.442000000    -1.765000000
O    -0.876000000     2.941000000     2.519000000
H    -0.262000000     2.911000000     3.253000000
H    -0.467000000     2.401000000     1.842000000
O     3.572000000    10.260000000    -0.699000000
H     3.348000000    10.014000000    -1.597000000
H     3.530000000     9.439000000    -0.209000000
O     0.473000000     9.019000000     3.700000000
H     0.747000000     8.656000000     4.543000000
H     0.608000000     8.305000000     3.077000000
O     6.812000000     5.840000000    -1.427000000
H     6.165000000     5.523000000    -0.798000000
H     6.362000000     6.538000000    -1.904000000
