215
-1441.45264
C     2.866000000    -0.507000000     3.679000000
H     3.395000000    -0.703000000     2.749000000
C     1.705000000    -1.226000000     4.031000000
C     0.971000000    -0.814000000     5.118000000
H     0.060000000    -1.369000000     5.327000000
C     1.164000000    -2.328000000     3.136000000
O     2.271000000    -3.126000000     2.662000000
H     0.702000000    -1.989000000     2.197000000
O     0.299000000    -3.340000000     3.758000000
C    -0.810000000    -3.621000000     3.094000000
C    -1.826000000    -2.775000000     3.177000000
H    -1.841000000    -1.990000000     3.928000000
C    -2.970000000    -2.850000000     2.291000000
O    -3.896000000    -1.806000000     2.316000000
C    -2.993000000    -3.791000000     1.289000000
C    -4.141000000    -3.916000000     0.196000000
H    -4.192000000    -4.914000000    -0.246000000
C    -4.014000000    -2.937000000    -0.959000000
C    -3.377000000    -3.318000000    -2.134000000
H    -3.212000000    -4.374000000    -2.332000000
H    -5.097000000    -3.792000000     0.710000000
C    -1.833000000    -4.664000000     1.195000000
H    -1.866000000    -5.384000000     0.381000000
C    -0.755000000    -4.584000000     2.038000000
C     0.505000000    -5.310000000     1.707000000
H     0.245000000    -6.191000000     1.116000000
H     1.038000000    -5.646000000     2.599000000
C     1.517000000    -4.530000000     0.817000000
C     1.560000000    -4.801000000    -0.563000000
H     0.855000000    -5.457000000    -1.068000000
C     2.376000000    -3.576000000     1.357000000
C     3.305000000    -2.977000000     0.547000000
H     3.959000000    -2.199000000     0.934000000
C     3.384000000    -3.232000000    -0.796000000
O     4.212000000    -2.434000000    -1.550000000
C     3.662000000    -1.200000000    -2.085000000
C     4.667000000    -0.097000000    -2.034000000
C     4.442000000     1.013000000    -2.828000000
H     3.593000000     1.006000000    -3.507000000
C     5.527000000     0.002000000    -0.946000000
H     5.678000000    -0.792000000    -0.218000000
O     3.209000000    -1.356000000    -3.488000000
H     2.748000000    -0.917000000    -1.542000000
C     2.466000000    -4.108000000    -1.379000000
C     2.455000000    -4.190000000    -2.934000000
H     2.124000000    -5.166000000    -3.296000000
H     3.455000000    -4.042000000    -3.348000000
C     1.556000000    -3.111000000    -3.585000000
C     0.206000000    -3.479000000    -3.781000000
H    -0.160000000    -4.488000000    -3.604000000
C     1.979000000    -1.803000000    -3.727000000
C     1.047000000    -0.895000000    -4.239000000
H     1.420000000     0.090000000    -4.505000000
C    -0.271000000    -1.297000000    -4.520000000
O    -1.069000000    -0.249000000    -4.823000000
C    -1.917000000     0.305000000    -3.844000000
C    -1.942000000     1.778000000    -3.940000000
C    -0.761000000     2.449000000    -3.916000000
H     0.175000000     1.897000000    -3.946000000
C    -3.085000000     2.494000000    -3.886000000
H    -4.045000000     1.989000000    -3.950000000
O    -3.224000000    -0.264000000    -4.122000000
H    -1.586000000     0.146000000    -2.807000000
C    -0.751000000    -2.555000000    -4.241000000
C    -2.207000000    -3.024000000    -4.344000000
H    -2.263000000    -4.107000000    -4.468000000
H    -2.637000000    -2.708000000    -5.297000000
C    -3.067000000    -2.467000000    -3.199000000
C    -3.595000000    -1.152000000    -3.107000000
C    -4.233000000    -0.748000000    -1.965000000
H    -4.541000000     0.293000000    -1.910000000
C    -4.247000000    -1.579000000    -0.853000000
O    -4.688000000    -0.946000000     0.313000000
C    -3.771000000    -0.678000000     1.366000000
H    -2.745000000    -0.795000000     0.988000000
C    -4.024000000     0.627000000     2.120000000
C    -3.890000000     0.743000000     3.521000000
H    -3.749000000    -0.180000000     4.077000000
C    -4.251000000     1.795000000     1.386000000
H    -4.296000000     1.671000000     0.307000000
C    -4.143000000     3.055000000     1.969000000
O    -4.051000000     4.128000000     1.231000000
C    -4.020000000     3.183000000     3.306000000
H    -4.163000000     4.127000000     3.827000000
C    -3.915000000     2.046000000     4.063000000
O    -3.614000000     2.277000000     5.389000000
C    -2.851000000     1.438000000     6.052000000
C    -1.479000000     1.654000000     6.092000000
H    -0.955000000     2.239000000     5.340000000
C    -3.425000000     0.414000000     6.803000000
H    -4.474000000     0.142000000     6.710000000
C    -2.676000000    -0.285000000     7.748000000
H    -3.190000000    -1.002000000     8.383000000
C    -1.325000000     0.000000000     7.837000000
H    -0.710000000    -0.415000000     8.631000000
C    -0.730000000     0.883000000     6.929000000
O     0.630000000     0.938000000     6.899000000
C     1.383000000     0.337000000     5.933000000
C     2.441000000     1.103000000     5.474000000
H     2.667000000     2.061000000     5.935000000
C     3.222000000     0.647000000     4.417000000
O     4.318000000     1.430000000     3.881000000
C     5.459000000     0.866000000     3.322000000
C     5.808000000     1.328000000     2.060000000
H     5.158000000     1.948000000     1.448000000
C     6.376000000     0.083000000     4.058000000
H     6.089000000    -0.201000000     5.067000000
C     7.526000000    -0.399000000     3.428000000
H     8.211000000    -1.070000000     3.940000000
C     7.796000000     0.018000000     2.157000000
H     8.685000000    -0.376000000     1.672000000
C     6.967000000     0.946000000     1.486000000
O     7.252000000     1.163000000     0.177000000
C     6.293000000     1.131000000    -0.786000000
C     6.119000000     2.192000000    -1.659000000
H     6.641000000     3.136000000    -1.524000000
C     5.231000000     2.152000000    -2.720000000
O     5.108000000     3.304000000    -3.562000000
C     4.066000000     3.591000000    -4.410000000
C     2.794000000     3.909000000    -3.853000000
H     2.669000000     4.049000000    -2.782000000
C     4.135000000     3.465000000    -5.790000000
H     5.104000000     3.287000000    -6.250000000
C     2.926000000     3.585000000    -6.517000000
H     3.000000000     3.465000000    -7.594000000
C     1.714000000     3.906000000    -5.945000000
H     0.764000000     4.058000000    -6.451000000
C     1.668000000     4.039000000    -4.580000000
O     0.425000000     4.500000000    -3.961000000
C    -0.740000000     3.842000000    -3.938000000
C    -1.946000000     4.554000000    -3.736000000
H    -1.822000000     5.633000000    -3.736000000
C    -3.116000000     3.875000000    -3.717000000
O    -4.287000000     4.682000000    -3.620000000
C    -4.941000000     4.742000000    -2.379000000
C    -6.324000000     4.726000000    -2.298000000
H    -6.934000000     4.937000000    -3.173000000
C    -6.954000000     4.490000000    -1.076000000
H    -8.027000000     4.523000000    -0.905000000
C    -6.152000000     4.350000000     0.092000000
H    -6.649000000     4.258000000     1.055000000
C    -4.733000000     4.384000000     0.055000000
C    -4.136000000     4.507000000    -1.229000000
H    -3.053000000     4.594000000    -1.278000000
C     1.794000000     2.234000000    -0.061000000
H     2.782000000     2.534000000     0.277000000
C     1.434000000     0.923000000    -0.086000000
H     2.078000000     0.082000000     0.157000000
C     0.185000000     0.535000000    -0.509000000
H    -0.045000000    -0.568000000    -0.527000000
C    -0.780000000     1.438000000    -0.854000000
H    -1.800000000     1.131000000    -1.070000000
C    -0.470000000     2.843000000    -0.674000000
H    -1.229000000     3.609000000    -0.811000000
C     0.852000000     3.229000000    -0.304000000
C     1.252000000     4.707000000    -0.266000000
O     0.408000000     5.538000000     0.018000000
O     2.384000000     5.064000000    -0.390000000
O     1.845000000     7.941000000    -0.930000000
H     1.703000000     6.996000000    -0.984000000
H     1.366000000     8.210000000    -0.145000000
O     0.464000000     7.088000000     2.149000000
H    -0.228000000     6.623000000     2.618000000
H     0.714000000     6.495000000     1.440000000
O     3.172000000     5.383000000     2.271000000
H     2.409000000     5.031000000     2.730000000
H     2.904000000     5.416000000     1.353000000
O    -2.057000000     5.815000000     2.734000000
H    -2.972000000     6.094000000     2.768000000
H    -2.099000000     4.861000000     2.670000000
O     3.903000000     8.062000000     3.456000000
H     3.547000000     7.229000000     3.145000000
H     4.752000000     8.137000000     3.021000000
O    -3.050000000     7.522000000    -2.294000000
H    -2.632000000     7.231000000    -1.484000000
H    -3.242000000     8.448000000    -2.146000000
O    -2.100000000     6.496000000    -0.044000000
H    -1.247000000     6.061000000    -0.058000000
H    -2.589000000     6.041000000     0.641000000
O     4.872000000     5.451000000    -1.272000000
H     3.999000000     5.567000000    -0.896000000
H     4.915000000     4.521000000    -1.493000000
O    -1.553000000     4.676000000     5.274000000
H    -1.938000000     4.709000000     4.398000000
H    -1.202000000     5.556000000     5.414000000
O     1.022000000     4.240000000     4.038000000
H     0.193000000     3.969000000     4.434000000
H     1.383000000     4.880000000     4.652000000
O    -0.252000000     9.571000000     0.885000000
H    -0.832000000     8.829000000     1.058000000
H     0.223000000     9.699000000     1.706000000
O     5.764000000     5.311000000     3.453000000
H     6.238000000     4.756000000     2.833000000
H     4.907000000     5.442000000     3.049000000
O     2.135000000     8.279000000    -3.739000000
H     2.434000000     8.611000000    -2.892000000
H     1.323000000     7.813000000    -3.540000000
O    -0.979000000     3.220000000     2.443000000
H    -0.178000000     3.659000000     2.155000000
H    -1.047000000     2.451000000     1.878000000
O    -1.164000000     8.209000000    -4.288000000
H    -1.870000000     8.178000000    -3.643000000
H    -1.109000000     7.316000000    -4.627000000
O     5.074000000     8.120000000    -0.940000000
H     4.163000000     8.406000000    -0.864000000
H     5.019000000     7.172000000    -1.058000000
O     1.288000000    10.898000000    -0.848000000
H     0.809000000    11.243000000    -1.601000000
H     0.653000000    10.343000000    -0.394000000
O     1.332000000     9.265000000     3.127000000
H     2.229000000     9.103000000     3.419000000
H     0.992000000     8.398000000     2.906000000
O     6.843000000     5.503000000    -3.121000000
H     6.040000000     5.428000000    -2.606000000
H     6.805000000     4.769000000    -3.734000000
