215
-1423.12332
C     1.250000000    -1.743000000     4.501000000
H     2.178000000    -2.104000000     4.063000000
C     0.034000000    -2.163000000     4.050000000
C    -1.162000000    -1.808000000     4.750000000
H    -2.146000000    -2.047000000     4.355000000
C    -0.081000000    -3.049000000     2.786000000
O     1.118000000    -3.871000000     2.591000000
H    -0.189000000    -2.293000000     1.995000000
O    -1.324000000    -3.811000000     2.783000000
C    -2.032000000    -3.922000000     1.549000000
C    -3.241000000    -3.201000000     1.441000000
H    -3.439000000    -2.576000000     2.308000000
C    -3.881000000    -3.090000000     0.212000000
O    -4.823000000    -2.060000000     0.107000000
C    -3.349000000    -3.711000000    -0.886000000
C    -4.017000000    -3.433000000    -2.282000000
H    -3.999000000    -4.337000000    -2.894000000
C    -3.396000000    -2.241000000    -2.992000000
C    -2.368000000    -2.427000000    -3.856000000
H    -2.058000000    -3.463000000    -3.962000000
H    -5.063000000    -3.208000000    -2.062000000
C    -2.258000000    -4.582000000    -0.676000000
H    -1.914000000    -5.043000000    -1.598000000
C    -1.614000000    -4.679000000     0.464000000
C    -0.283000000    -5.386000000     0.528000000
H    -0.307000000    -6.222000000    -0.174000000
H    -0.119000000    -5.815000000     1.518000000
C     0.976000000    -4.500000000     0.308000000
C     1.509000000    -4.406000000    -1.000000000
H     0.989000000    -4.979000000    -1.764000000
C     1.699000000    -3.859000000     1.310000000
C     2.735000000    -3.025000000     1.085000000
H     3.151000000    -2.402000000     1.873000000
C     3.360000000    -3.118000000    -0.120000000
O     4.372000000    -2.219000000    -0.342000000
C     4.119000000    -0.921000000    -0.955000000
C     4.950000000     0.140000000    -0.307000000
C     5.445000000     1.302000000    -1.009000000
H     5.315000000     1.385000000    -2.085000000
C     5.039000000     0.113000000     1.082000000
H     4.866000000    -0.810000000     1.628000000
O     4.337000000    -0.981000000    -2.386000000
H     3.057000000    -0.730000000    -0.742000000
C     2.742000000    -3.851000000    -1.212000000
C     3.207000000    -3.642000000    -2.682000000
H     3.041000000    -4.521000000    -3.308000000
H     4.296000000    -3.559000000    -2.684000000
C     2.686000000    -2.379000000    -3.443000000
C     1.490000000    -2.493000000    -4.148000000
H     0.998000000    -3.442000000    -4.348000000
C     3.271000000    -1.143000000    -3.241000000
C     2.690000000    -0.022000000    -3.765000000
H     3.074000000     0.952000000    -3.473000000
C     1.528000000    -0.101000000    -4.485000000
O     0.874000000     1.005000000    -4.890000000
C    -0.119000000     1.561000000    -4.045000000
C    -0.015000000     3.096000000    -3.960000000
C     1.245000000     3.698000000    -3.872000000
H     2.087000000     3.029000000    -4.028000000
C    -1.124000000     3.875000000    -3.581000000
H    -2.109000000     3.425000000    -3.667000000
O    -1.474000000     1.144000000    -4.431000000
H     0.107000000     1.170000000    -3.041000000
C     0.928000000    -1.341000000    -4.625000000
C    -0.466000000    -1.452000000    -5.249000000
H    -0.544000000    -2.443000000    -5.702000000
H    -0.502000000    -0.820000000    -6.139000000
C    -1.582000000    -1.309000000    -4.225000000
C    -2.007000000    -0.009000000    -3.878000000
C    -3.151000000     0.115000000    -3.133000000
H    -3.687000000     1.060000000    -3.097000000
C    -3.814000000    -0.961000000    -2.598000000
O    -4.764000000    -0.634000000    -1.611000000
C    -4.334000000    -0.804000000    -0.267000000
H    -3.236000000    -0.863000000    -0.307000000
C    -4.812000000     0.347000000     0.649000000
C    -5.195000000     0.061000000     1.951000000
H    -5.440000000    -0.937000000     2.304000000
C    -4.669000000     1.650000000     0.175000000
H    -4.245000000     1.834000000    -0.809000000
C    -4.835000000     2.730000000     1.070000000
O    -4.744000000     4.056000000     0.688000000
C    -5.123000000     2.449000000     2.348000000
H    -5.307000000     3.237000000     3.073000000
C    -5.433000000     1.160000000     2.792000000
O    -5.839000000     0.971000000     4.059000000
C    -5.300000000     0.018000000     4.959000000
C    -3.927000000     0.070000000     5.239000000
H    -3.178000000     0.761000000     4.861000000
C    -6.081000000    -0.887000000     5.551000000
H    -7.131000000    -0.910000000     5.271000000
C    -5.591000000    -1.772000000     6.524000000
H    -6.235000000    -2.454000000     7.073000000
C    -4.280000000    -1.637000000     6.816000000
H    -3.752000000    -2.193000000     7.586000000
C    -3.458000000    -0.734000000     6.184000000
O    -2.139000000    -0.568000000     6.599000000
C    -1.077000000    -1.139000000     5.951000000
C     0.107000000    -0.729000000     6.364000000
H     0.163000000    -0.029000000     7.193000000
C     1.303000000    -0.943000000     5.641000000
O     2.486000000    -0.552000000     6.215000000
C     3.722000000    -0.670000000     5.577000000
C     4.145000000     0.390000000     4.708000000
H     3.439000000     1.186000000     4.489000000
C     4.522000000    -1.798000000     5.880000000
H     4.260000000    -2.474000000     6.689000000
C     5.855000000    -1.764000000     5.342000000
H     6.575000000    -2.493000000     5.705000000
C     6.227000000    -0.742000000     4.402000000
H     7.202000000    -0.736000000     3.921000000
C     5.369000000     0.269000000     4.034000000
O     5.659000000     1.225000000     3.180000000
C     5.487000000     1.258000000     1.799000000
C     5.949000000     2.364000000     1.058000000
H     6.482000000     3.176000000     1.547000000
C     5.976000000     2.370000000    -0.339000000
O     6.465000000     3.435000000    -1.064000000
C     5.755000000     3.937000000    -2.187000000
C     4.419000000     4.329000000    -2.062000000
H     3.870000000     4.195000000    -1.134000000
C     6.426000000     3.985000000    -3.413000000
H     7.410000000     3.530000000    -3.492000000
C     5.733000000     4.485000000    -4.495000000
H     6.172000000     4.363000000    -5.482000000
C     4.446000000     4.948000000    -4.367000000
H     3.846000000     5.287000000    -5.208000000
C     3.787000000     4.896000000    -3.152000000
O     2.586000000     5.518000000    -3.200000000
C     1.387000000     4.976000000    -3.417000000
C     0.309000000     5.789000000    -3.071000000
H     0.468000000     6.806000000    -2.723000000
C    -0.963000000     5.204000000    -3.213000000
O    -2.124000000     5.975000000    -2.875000000
C    -3.273000000     5.391000000    -2.466000000
C    -4.245000000     4.904000000    -3.371000000
H    -4.109000000     5.091000000    -4.433000000
C    -5.369000000     4.261000000    -2.954000000
H    -6.022000000     3.735000000    -3.646000000
C    -5.544000000     3.966000000    -1.574000000
H    -6.502000000     3.519000000    -1.322000000
C    -4.604000000     4.363000000    -0.637000000
C    -3.497000000     5.151000000    -1.084000000
H    -2.726000000     5.430000000    -0.370000000
C     2.359000000     2.463000000     1.190000000
H     3.326000000     2.419000000     1.684000000
C     1.776000000     1.359000000     0.651000000
H     2.187000000     0.378000000     0.877000000
C     0.653000000     1.306000000    -0.143000000
H     0.074000000     0.420000000    -0.403000000
C     0.127000000     2.558000000    -0.466000000
H    -0.736000000     2.480000000    -1.122000000
C     0.671000000     3.766000000    -0.001000000
H     0.169000000     4.693000000    -0.267000000
C     1.742000000     3.736000000     0.898000000
C     2.347000000     4.984000000     1.442000000
O     1.795000000     6.015000000     1.216000000
O     3.362000000     5.020000000     2.085000000
O     2.477000000     8.684000000    -2.074000000
H     1.784000000     8.115000000    -1.738000000
H     2.388000000     9.493000000    -1.569000000
O     4.144000000     4.185000000     4.459000000
H     3.828000000     4.396000000     3.580000000
H     5.096000000     4.270000000     4.397000000
O     5.988000000     5.339000000     2.529000000
H     6.251000000     4.967000000     3.371000000
H     5.031000000     5.318000000     2.547000000
O    -3.417000000     6.653000000     2.067000000
H    -3.723000000     5.762000000     2.237000000
H    -2.493000000     6.641000000     2.318000000
O     4.183000000     9.411000000     4.003000000
H     3.717000000     8.607000000     4.233000000
H     4.482000000     9.267000000     3.106000000
O     7.578000000     6.160000000    -0.103000000
H     7.039000000     5.464000000     0.274000000
H     8.148000000     6.436000000     0.615000000
O     1.999000000    10.751000000    -0.321000000
H     1.966000000    10.238000000     0.486000000
H     1.109000000    11.087000000    -0.428000000
O     6.163000000     7.642000000    -1.898000000
H     6.805000000     7.251000000    -1.304000000
H     5.315000000     7.367000000    -1.549000000
O     0.495000000     7.755000000    -0.614000000
H     0.814000000     7.035000000    -0.069000000
H     0.007000000     8.314000000    -0.010000000
O     1.577000000     9.434000000     2.066000000
H     0.846000000     9.889000000     2.484000000
H     1.831000000     8.760000000     2.697000000
O    -0.041000000     7.591000000     5.542000000
H    -0.529000000     7.101000000     6.205000000
H    -0.110000000     7.056000000     4.751000000
O     3.826000000     7.462000000    -0.041000000
H     3.088000000     7.010000000     0.368000000
H     3.462000000     7.840000000    -0.842000000
O     4.496000000     6.846000000     6.235000000
H     3.917000000     6.265000000     5.741000000
H     5.378000000     6.586000000     5.969000000
O     5.647000000     8.068000000     1.771000000
H     6.216000000     7.304000000     1.670000000
H     4.924000000     7.910000000     1.164000000
O    -1.922000000     3.966000000     3.530000000
H    -1.304000000     3.252000000     3.375000000
H    -2.495000000     3.641000000     4.225000000
O     0.285000000     1.815000000     3.896000000
H     0.971000000     1.858000000     3.229000000
H     0.542000000     1.082000000     4.455000000
O    -1.618000000     0.330000000     2.331000000
H    -1.108000000     1.035000000     2.729000000
H    -1.422000000     0.391000000     1.396000000
O     2.459000000     7.376000000     3.513000000
H     2.630000000     6.912000000     2.694000000
H     1.641000000     6.997000000     3.837000000
O    -0.140000000     6.340000000     3.166000000
H    -0.689000000     5.556000000     3.181000000
H     0.249000000     6.342000000     2.291000000
