215
-1442.92155
C    -4.946000000    -1.022000000    -1.331000000
H    -5.104000000    -0.146000000    -1.955000000
C    -4.581000000    -0.804000000    -0.042000000
C    -4.335000000    -1.941000000     0.746000000
H    -4.025000000    -1.722000000     1.764000000
C    -4.215000000     0.634000000     0.447000000
O    -4.542000000     1.629000000    -0.494000000
H    -3.121000000     0.663000000     0.562000000
O    -4.711000000     0.969000000     1.759000000
C    -3.770000000     1.547000000     2.525000000
C    -3.139000000     0.745000000     3.472000000
H    -3.413000000    -0.306000000     3.529000000
C    -2.006000000     1.246000000     4.119000000
O    -1.248000000     0.349000000     4.786000000
C    -1.649000000     2.585000000     3.971000000
C    -0.379000000     3.114000000     4.666000000
H    -0.437000000     4.177000000     4.909000000
C     0.889000000     2.827000000     3.852000000
C     1.580000000     3.784000000     3.000000000
H     1.006000000     4.698000000     2.873000000
H    -0.287000000     2.604000000     5.627000000
C    -2.303000000     3.447000000     3.121000000
H    -2.023000000     4.481000000     2.933000000
C    -3.359000000     2.901000000     2.332000000
C    -4.019000000     3.776000000     1.304000000
H    -3.904000000     4.843000000     1.509000000
H    -5.072000000     3.513000000     1.186000000
C    -3.275000000     3.519000000    -0.031000000
C    -2.252000000     4.401000000    -0.399000000
H    -1.912000000     5.165000000     0.295000000
C    -3.644000000     2.479000000    -0.946000000
C    -3.081000000     2.402000000    -2.185000000
H    -3.448000000     1.661000000    -2.891000000
C    -2.054000000     3.268000000    -2.544000000
O    -1.487000000     2.924000000    -3.754000000
C    -0.231000000     2.295000000    -3.663000000
C     0.003000000     1.132000000    -4.627000000
C     1.215000000     0.971000000    -5.374000000
H     2.025000000     1.693000000    -5.303000000
C    -0.966000000     0.137000000    -4.884000000
H    -1.902000000     0.208000000    -4.337000000
O     0.840000000     3.276000000    -3.777000000
H    -0.029000000     1.870000000    -2.669000000
C    -1.636000000     4.256000000    -1.647000000
C    -0.463000000     5.138000000    -2.032000000
H    -0.498000000     6.093000000    -1.504000000
H    -0.578000000     5.271000000    -3.110000000
C     0.860000000     4.518000000    -1.736000000
C     1.447000000     4.770000000    -0.524000000
H     1.043000000     5.379000000     0.280000000
C     1.481000000     3.584000000    -2.611000000
C     2.684000000     2.976000000    -2.298000000
H     3.112000000     2.195000000    -2.922000000
C     3.170000000     3.168000000    -0.998000000
O     4.144000000     2.306000000    -0.557000000
C     3.792000000     1.184000000     0.310000000
C     4.400000000    -0.188000000    -0.120000000
C     4.731000000    -0.331000000    -1.419000000
H     4.694000000     0.516000000    -2.100000000
C     4.434000000    -1.233000000     0.770000000
H     3.947000000    -1.128000000     1.736000000
O     4.213000000     1.674000000     1.576000000
H     2.693000000     1.167000000     0.264000000
C     2.598000000     4.115000000    -0.156000000
C     3.189000000     4.391000000     1.190000000
H     2.902000000     5.410000000     1.456000000
H     4.265000000     4.415000000     1.006000000
C     2.661000000     3.439000000     2.250000000
C     3.201000000     2.142000000     2.382000000
C     2.817000000     1.336000000     3.444000000
H     3.307000000     0.394000000     3.675000000
C     1.641000000     1.662000000     4.136000000
O     1.070000000     0.641000000     4.860000000
C    -0.024000000    -0.113000000     4.276000000
H    -0.023000000    -0.069000000     3.177000000
C     0.131000000    -1.648000000     4.507000000
C    -0.984000000    -2.457000000     4.732000000
H    -1.941000000    -2.030000000     4.441000000
C     1.324000000    -2.288000000     4.763000000
H     2.198000000    -1.643000000     4.795000000
C     1.459000000    -3.572000000     5.147000000
O     2.765000000    -4.043000000     5.443000000
C     0.321000000    -4.380000000     5.341000000
H     0.334000000    -5.400000000     5.718000000
C    -0.910000000    -3.772000000     5.112000000
O    -2.119000000    -4.510000000     5.313000000
C    -3.257000000    -4.254000000     4.563000000
C    -3.273000000    -4.395000000     3.167000000
H    -2.412000000    -4.482000000     2.510000000
C    -4.472000000    -4.031000000     5.240000000
H    -4.459000000    -4.186000000     6.316000000
C    -5.697000000    -3.810000000     4.537000000
H    -6.519000000    -3.530000000     5.191000000
C    -5.690000000    -3.847000000     3.108000000
H    -6.522000000    -3.606000000     2.452000000
C    -4.460000000    -4.131000000     2.472000000
O    -4.438000000    -4.298000000     1.096000000
C    -4.504000000    -3.229000000     0.268000000
C    -4.838000000    -3.350000000    -1.117000000
H    -4.945000000    -4.354000000    -1.520000000
C    -5.059000000    -2.233000000    -1.888000000
O    -5.465000000    -2.383000000    -3.213000000
C    -4.874000000    -1.722000000    -4.258000000
C    -3.603000000    -2.082000000    -4.644000000
H    -3.060000000    -2.867000000    -4.125000000
C    -5.665000000    -0.838000000    -5.018000000
H    -6.559000000    -0.333000000    -4.661000000
C    -5.063000000    -0.369000000    -6.175000000
H    -5.559000000     0.367000000    -6.802000000
C    -3.801000000    -0.666000000    -6.605000000
H    -3.414000000    -0.362000000    -7.574000000
C    -3.025000000    -1.456000000    -5.737000000
O    -1.744000000    -1.738000000    -6.190000000
C    -0.767000000    -0.867000000    -5.793000000
C     0.435000000    -0.907000000    -6.519000000
H     0.499000000    -1.528000000    -7.409000000
C     1.467000000    -0.073000000    -6.260000000
O     2.662000000    -0.332000000    -6.867000000
C     3.744000000    -0.305000000    -6.097000000
C     3.841000000    -0.999000000    -4.930000000
H     2.999000000    -1.615000000    -4.622000000
C     4.839000000     0.426000000    -6.696000000
H     4.735000000     0.909000000    -7.664000000
C     6.045000000     0.512000000    -5.903000000
H     6.848000000     1.190000000    -6.180000000
C     6.167000000    -0.294000000    -4.725000000
H     7.081000000    -0.366000000    -4.142000000
C     5.080000000    -1.053000000    -4.259000000
O     5.233000000    -1.851000000    -3.234000000
C     5.119000000    -1.547000000    -1.863000000
C     5.112000000    -2.627000000    -0.992000000
H     5.265000000    -3.622000000    -1.403000000
C     4.875000000    -2.449000000     0.354000000
O     4.741000000    -3.613000000     1.172000000
C     4.874000000    -3.567000000     2.535000000
C     6.098000000    -3.351000000     3.150000000
H     6.978000000    -3.214000000     2.526000000
C     6.209000000    -3.430000000     4.493000000
H     7.152000000    -3.387000000     5.033000000
C     5.098000000    -3.623000000     5.240000000
H     5.123000000    -3.677000000     6.325000000
C     3.852000000    -3.832000000     4.665000000
C     3.718000000    -3.877000000     3.317000000
H     2.771000000    -4.141000000     2.854000000
C    -0.901000000    -2.168000000    -0.497000000
H    -1.654000000    -2.656000000    -1.111000000
C    -0.986000000    -0.773000000    -0.311000000
H    -1.759000000    -0.210000000    -0.829000000
C     0.003000000    -0.187000000     0.527000000
H    -0.022000000     0.859000000     0.715000000
C     1.054000000    -0.987000000     1.058000000
H     1.736000000    -0.571000000     1.794000000
C     1.167000000    -2.308000000     0.731000000
H     1.875000000    -2.935000000     1.268000000
C     0.149000000    -2.904000000     0.033000000
C     0.247000000    -4.398000000    -0.363000000
O     1.095000000    -5.096000000     0.143000000
O    -0.530000000    -4.846000000    -1.185000000
O    -0.905000000    -7.412000000    -1.788000000
H    -0.928000000    -6.479000000    -1.575000000
H    -1.733000000    -7.755000000    -1.454000000
O    -2.425000000    -7.551000000     2.678000000
H    -2.140000000    -8.130000000     1.972000000
H    -3.320000000    -7.832000000     2.871000000
O     0.517000000    -6.132000000     2.451000000
H     0.688000000    -5.628000000     1.656000000
H    -0.429000000    -6.278000000     2.444000000
O    -0.599000000    -4.483000000    -6.576000000
H    -1.104000000    -5.205000000    -6.203000000
H    -0.921000000    -3.705000000    -6.121000000
O     0.192000000    -4.409000000    -3.765000000
H    -0.147000000    -5.137000000    -4.286000000
H    -0.224000000    -4.513000000    -2.909000000
O     0.778000000    -9.503000000     1.618000000
H    -0.128000000    -9.510000000     1.309000000
H     1.231000000    -8.910000000     1.018000000
O     3.167000000    -5.136000000    -2.887000000
H     2.676000000    -4.937000000    -2.090000000
H     2.623000000    -5.772000000    -3.352000000
O     4.485000000    -7.475000000    -0.780000000
H     5.242000000    -6.945000000    -0.531000000
H     3.758000000    -7.105000000    -0.279000000
O     1.505000000    -7.183000000    -3.740000000
H     0.609000000    -7.513000000    -3.681000000
H     1.936000000    -7.770000000    -4.361000000
O    -1.820000000    -6.389000000    -5.148000000
H    -2.130000000    -6.130000000    -4.280000000
H    -1.568000000    -7.307000000    -5.049000000
O     2.251000000    -3.676000000    -5.588000000
H     1.345000000    -3.952000000    -5.730000000
H     2.450000000    -3.960000000    -4.695000000
O     2.944000000    -7.125000000     2.749000000
H     2.757000000    -7.464000000     3.624000000
H     2.244000000    -6.494000000     2.582000000
O    -0.945000000    -8.958000000    -4.377000000
H    -0.871000000    -8.708000000    -3.455000000
H    -1.864000000    -9.200000000    -4.486000000
O     5.567000000    -5.101000000    -3.971000000
H     4.695000000    -5.168000000    -3.583000000
H     6.110000000    -4.727000000    -3.277000000
O     1.487000000    -7.770000000    -0.465000000
H     1.496000000    -6.859000000    -0.172000000
H     0.834000000    -7.791000000    -1.164000000
O     3.817000000    -9.627000000     0.947000000
H     4.168000000    -9.091000000     0.237000000
H     3.471000000    -8.995000000     1.577000000
O    -3.303000000    -7.118000000    -0.345000000
H    -4.141000000    -7.062000000     0.115000000
H    -2.675000000    -6.712000000     0.253000000
O     2.213000000    -9.515000000    -2.401000000
H     2.624000000    -9.510000000    -3.265000000
H     2.283000000    -8.610000000    -2.097000000
O    -2.597000000    -5.185000000    -2.863000000
H    -2.063000000    -4.913000000    -2.116000000
H    -3.335000000    -5.652000000    -2.472000000
