215
-1466.40653
C     2.107000000    -1.594000000     4.986000000
H     2.848000000    -2.346000000     4.727000000
C     0.810000000    -1.697000000     4.599000000
C    -0.146000000    -0.819000000     5.105000000
H    -1.217000000    -0.976000000     5.014000000
C     0.286000000    -2.699000000     3.597000000
O     1.212000000    -3.769000000     3.353000000
H     0.287000000    -2.066000000     2.697000000
O    -1.041000000    -3.158000000     3.785000000
C    -1.869000000    -3.291000000     2.690000000
C    -2.796000000    -2.281000000     2.550000000
H    -3.003000000    -1.478000000     3.253000000
C    -3.611000000    -2.297000000     1.365000000
O    -4.405000000    -1.195000000     1.224000000
C    -3.454000000    -3.277000000     0.372000000
C    -4.319000000    -3.290000000    -0.914000000
H    -4.339000000    -4.293000000    -1.345000000
C    -3.837000000    -2.308000000    -2.012000000
C    -2.996000000    -2.771000000    -3.054000000
H    -2.560000000    -3.762000000    -2.951000000
H    -5.372000000    -3.204000000    -0.636000000
C    -2.558000000    -4.318000000     0.669000000
H    -2.408000000    -5.121000000    -0.048000000
C    -1.644000000    -4.278000000     1.723000000
C    -0.578000000    -5.316000000     1.817000000
H    -0.923000000    -6.213000000     1.297000000
H    -0.479000000    -5.747000000     2.816000000
C     0.735000000    -4.788000000     1.241000000
C     0.922000000    -4.994000000    -0.056000000
H     0.191000000    -5.587000000    -0.599000000
C     1.611000000    -4.092000000     2.092000000
C     2.686000000    -3.530000000     1.526000000
H     3.466000000    -3.156000000     2.184000000
C     2.896000000    -3.607000000     0.120000000
O     3.949000000    -2.829000000    -0.349000000
C     3.606000000    -1.601000000    -1.064000000
C     4.548000000    -0.458000000    -0.595000000
C     4.716000000     0.714000000    -1.424000000
H     4.098000000     0.793000000    -2.315000000
C     5.155000000    -0.419000000     0.650000000
H     5.084000000    -1.300000000     1.283000000
O     3.667000000    -1.874000000    -2.455000000
H     2.574000000    -1.438000000    -0.721000000
C     1.983000000    -4.341000000    -0.715000000
C     2.281000000    -4.499000000    -2.209000000
H     1.780000000    -5.381000000    -2.613000000
H     3.347000000    -4.533000000    -2.446000000
C     1.786000000    -3.274000000    -3.004000000
C     0.544000000    -3.426000000    -3.623000000
H     0.040000000    -4.388000000    -3.578000000
C     2.454000000    -2.091000000    -3.064000000
C     1.982000000    -1.054000000    -3.791000000
H     2.604000000    -0.164000000    -3.832000000
C     0.696000000    -1.143000000    -4.375000000
O     0.082000000    -0.012000000    -4.948000000
C    -0.849000000     0.789000000    -4.180000000
C    -0.588000000     2.314000000    -4.230000000
C     0.762000000     2.754000000    -4.416000000
H     1.543000000     2.024000000    -4.612000000
C    -1.613000000     3.247000000    -4.023000000
H    -2.615000000     2.878000000    -3.821000000
O    -2.184000000     0.472000000    -4.632000000
H    -0.863000000     0.629000000    -3.092000000
C    -0.048000000    -2.310000000    -4.232000000
C    -1.428000000    -2.435000000    -4.898000000
H    -1.559000000    -3.505000000    -5.078000000
H    -1.458000000    -1.817000000    -5.798000000
C    -2.503000000    -1.896000000    -4.029000000
C    -2.838000000    -0.526000000    -3.910000000
C    -3.722000000    -0.092000000    -2.925000000
H    -4.032000000     0.950000000    -2.900000000
C    -4.206000000    -0.972000000    -1.965000000
O    -4.910000000    -0.434000000    -0.940000000
C    -4.180000000    -0.165000000     0.239000000
H    -3.103000000    -0.108000000     0.022000000
C    -4.597000000     1.154000000     0.798000000
C    -4.515000000     1.380000000     2.210000000
H    -4.076000000     0.583000000     2.805000000
C    -4.946000000     2.223000000    -0.005000000
H    -4.771000000     2.130000000    -1.074000000
C    -5.217000000     3.460000000     0.553000000
O    -5.553000000     4.501000000    -0.212000000
C    -5.163000000     3.604000000     1.972000000
H    -5.394000000     4.585000000     2.381000000
C    -4.821000000     2.544000000     2.779000000
O    -4.712000000     2.719000000     4.138000000
C    -4.089000000     1.802000000     5.016000000
C    -2.715000000     1.838000000     5.126000000
H    -2.087000000     2.402000000     4.441000000
C    -4.841000000     1.069000000     5.871000000
H    -5.911000000     1.094000000     5.676000000
C    -4.240000000     0.212000000     6.752000000
H    -4.715000000    -0.459000000     7.463000000
C    -2.873000000     0.210000000     6.823000000
H    -2.538000000    -0.412000000     7.649000000
C    -2.067000000     1.013000000     6.062000000
O    -0.750000000     1.151000000     6.236000000
C     0.183000000     0.230000000     5.917000000
C     1.555000000     0.473000000     6.195000000
H     1.893000000     1.327000000     6.776000000
C     2.527000000    -0.409000000     5.693000000
O     3.893000000    -0.296000000     6.091000000
C     4.928000000    -0.481000000     5.209000000
C     5.165000000     0.147000000     4.028000000
H     4.583000000     0.984000000     3.650000000
C     5.874000000    -1.464000000     5.657000000
H     5.776000000    -1.912000000     6.643000000
C     7.065000000    -1.637000000     5.012000000
H     7.798000000    -2.263000000     5.514000000
C     7.199000000    -1.005000000     3.791000000
H     8.133000000    -1.183000000     3.263000000
C     6.241000000    -0.159000000     3.246000000
O     6.606000000     0.633000000     2.142000000
C     5.829000000     0.709000000     1.040000000
C     6.003000000     1.811000000     0.244000000
H     6.488000000     2.694000000     0.652000000
C     5.328000000     1.805000000    -0.997000000
O     5.510000000     2.944000000    -1.731000000
C     5.123000000     3.076000000    -3.046000000
C     3.891000000     3.524000000    -3.346000000
H     3.217000000     3.729000000    -2.517000000
C     6.078000000     2.837000000    -4.055000000
H     7.102000000     2.532000000    -3.858000000
C     5.752000000     3.241000000    -5.383000000
H     6.456000000     3.108000000    -6.200000000
C     4.473000000     3.725000000    -5.701000000
H     4.240000000     4.110000000    -6.691000000
C     3.500000000     3.907000000    -4.640000000
O     2.266000000     4.512000000    -4.888000000
C     1.029000000     4.086000000    -4.431000000
C     0.028000000     4.981000000    -4.088000000
H     0.200000000     6.054000000    -4.067000000
C    -1.292000000     4.594000000    -3.893000000
O    -2.286000000     5.524000000    -3.611000000
C    -3.597000000     5.166000000    -3.217000000
C    -4.639000000     5.085000000    -4.138000000
H    -4.414000000     5.406000000    -5.152000000
C    -5.927000000     4.879000000    -3.755000000
H    -6.751000000     4.888000000    -4.463000000
C    -6.192000000     4.671000000    -2.401000000
H    -7.207000000     4.543000000    -2.033000000
C    -5.174000000     4.672000000    -1.490000000
C    -3.855000000     4.860000000    -1.924000000
H    -3.088000000     4.796000000    -1.157000000
C     2.178000000     1.986000000     0.289000000
H     3.172000000     2.142000000     0.700000000
C     1.606000000     0.732000000     0.312000000
H     2.229000000     0.008000000     0.831000000
C     0.362000000     0.451000000    -0.256000000
H    -0.127000000    -0.575000000    -0.245000000
C    -0.324000000     1.604000000    -0.781000000
H    -1.301000000     1.554000000    -1.255000000
C     0.303000000     2.862000000    -0.832000000
H    -0.205000000     3.667000000    -1.357000000
C     1.536000000     3.086000000    -0.297000000
C     2.063000000     4.534000000    -0.213000000
O     1.444000000     5.452000000    -0.796000000
O     3.035000000     4.684000000     0.483000000
O     2.745000000     6.610000000    -3.014000000
H     2.389000000     6.166000000    -2.245000000
H     2.321000000     7.468000000    -3.012000000
O     2.013000000     5.639000000     3.669000000
H     1.131000000     5.877000000     3.381000000
H     2.587000000     6.257000000     3.217000000
O     6.814000000     3.273000000     3.780000000
H     7.248000000     2.663000000     3.183000000
H     5.979000000     3.470000000     3.356000000
O     4.281000000     3.946000000     2.599000000
H     4.093000000     4.799000000     2.989000000
H     3.889000000     3.989000000     1.727000000
O    -2.427000000     4.668000000     2.549000000
H    -3.261000000     4.198000000     2.567000000
H    -1.816000000     4.057000000     2.138000000
O     3.237000000     7.475000000    -5.676000000
H     2.733000000     7.017000000    -5.004000000
H     4.147000000     7.391000000    -5.393000000
O    -0.960000000     8.425000000    -3.889000000
H    -0.574000000     9.298000000    -3.824000000
H    -0.784000000     8.021000000    -3.039000000
O    -0.223000000     7.369000000    -1.388000000
H     0.141000000     6.484000000    -1.390000000
H     0.032000000     7.731000000    -0.539000000
O     2.900000000    10.231000000     1.108000000
H     2.355000000     9.536000000     0.740000000
H     2.924000000    10.046000000     2.046000000
O    -0.488000000     6.692000000     2.963000000
H    -0.693000000     7.179000000     3.761000000
H    -1.211000000     6.071000000     2.869000000
O     5.357000000     6.189000000     0.194000000
H     4.682000000     5.522000000     0.319000000
H     5.524000000     6.186000000    -0.749000000
O     5.466000000     9.002000000     0.215000000
H     5.200000000     8.091000000     0.093000000
H     4.668000000     9.449000000     0.499000000
O    -0.042000000     3.737000000     5.542000000
H    -0.574000000     3.007000000     5.859000000
H     0.421000000     3.384000000     4.783000000
O     1.761000000     2.841000000     3.385000000
H     2.098000000     3.730000000     3.496000000
H     2.515000000     2.334000000     3.086000000
O    -2.688000000     8.452000000    -1.594000000
H    -1.907000000     7.914000000    -1.468000000
H    -2.772000000     8.534000000    -2.544000000
O    -0.692000000     2.573000000     2.064000000
H     0.149000000     2.811000000     2.455000000
H    -0.505000000     2.488000000     1.129000000
O     4.094000000     7.440000000     2.947000000
H     3.567000000     8.189000000     3.227000000
H     4.965000000     7.805000000     2.792000000
O     1.162000000     7.566000000     0.896000000
H     0.596000000     7.190000000     1.570000000
H     1.619000000     6.814000000     0.520000000
O     5.540000000     6.242000000    -2.391000000
H     6.073000000     6.150000000    -3.181000000
H     4.637000000     6.220000000    -2.709000000
