215
-1438.81193
C     3.111000000    -1.211000000     4.555000000
H     3.794000000    -2.014000000     4.288000000
C     1.844000000    -1.244000000     4.075000000
C     0.913000000    -0.231000000     4.354000000
H    -0.141000000    -0.394000000     4.146000000
C     1.153000000    -2.380000000     3.221000000
O     2.174000000    -3.443000000     3.015000000
H     0.889000000    -1.953000000     2.242000000
O     0.003000000    -2.980000000     3.882000000
C    -1.096000000    -3.281000000     3.063000000
C    -2.180000000    -2.418000000     3.155000000
H    -2.122000000    -1.564000000     3.824000000
C    -3.212000000    -2.469000000     2.250000000
O    -4.274000000    -1.567000000     2.414000000
C    -3.208000000    -3.449000000     1.281000000
C    -4.389000000    -3.663000000     0.340000000
H    -4.548000000    -4.670000000    -0.052000000
C    -4.212000000    -2.722000000    -0.852000000
C    -3.455000000    -3.152000000    -1.931000000
H    -3.186000000    -4.205000000    -1.934000000
H    -5.359000000    -3.368000000     0.744000000
C    -2.106000000    -4.330000000     1.152000000
H    -2.138000000    -4.998000000     0.295000000
C    -1.088000000    -4.171000000     2.039000000
C     0.089000000    -5.139000000     1.908000000
H    -0.185000000    -6.042000000     1.358000000
H     0.391000000    -5.497000000     2.895000000
C     1.293000000    -4.572000000     1.095000000
C     1.455000000    -4.870000000    -0.266000000
H     0.634000000    -5.437000000    -0.697000000
C     2.309000000    -3.845000000     1.736000000
C     3.366000000    -3.280000000     0.974000000
H     4.152000000    -2.741000000     1.498000000
C     3.372000000    -3.344000000    -0.369000000
O     4.160000000    -2.522000000    -1.117000000
C     3.526000000    -1.458000000    -1.951000000
C     4.246000000    -0.122000000    -1.823000000
C     4.247000000     0.836000000    -2.831000000
H     3.776000000     0.623000000    -3.787000000
C     4.884000000     0.225000000    -0.650000000
H     4.891000000    -0.512000000     0.150000000
O     3.369000000    -1.841000000    -3.317000000
H     2.583000000    -1.089000000    -1.520000000
C     2.448000000    -4.273000000    -1.053000000
C     2.473000000    -4.446000000    -2.551000000
H     2.035000000    -5.419000000    -2.784000000
H     3.457000000    -4.508000000    -3.020000000
C     1.488000000    -3.386000000    -3.066000000
C     0.092000000    -3.576000000    -3.247000000
H    -0.353000000    -4.517000000    -2.934000000
C     2.021000000    -2.153000000    -3.527000000
C     1.238000000    -1.250000000    -4.159000000
H     1.659000000    -0.343000000    -4.585000000
C    -0.102000000    -1.443000000    -4.347000000
O    -0.834000000    -0.357000000    -4.794000000
C    -1.557000000     0.313000000    -3.746000000
C    -1.403000000     1.792000000    -3.809000000
C    -0.432000000     2.376000000    -4.683000000
H     0.131000000     1.719000000    -5.341000000
C    -2.075000000     2.578000000    -2.912000000
H    -2.750000000     2.077000000    -2.223000000
O    -2.950000000    -0.024000000    -3.800000000
H    -1.109000000     0.135000000    -2.757000000
C    -0.670000000    -2.628000000    -3.867000000
C    -2.172000000    -2.841000000    -4.073000000
H    -2.349000000    -3.914000000    -4.173000000
H    -2.533000000    -2.411000000    -5.009000000
C    -3.029000000    -2.275000000    -2.967000000
C    -3.455000000    -0.939000000    -2.919000000
C    -4.198000000    -0.545000000    -1.832000000
H    -4.297000000     0.534000000    -1.744000000
C    -4.604000000    -1.347000000    -0.820000000
O    -5.202000000    -0.825000000     0.327000000
C    -4.325000000    -0.502000000     1.416000000
H    -3.337000000    -0.363000000     0.953000000
C    -4.759000000     0.780000000     2.107000000
C    -4.278000000     1.050000000     3.378000000
H    -3.702000000     0.353000000     3.982000000
C    -5.391000000     1.808000000     1.412000000
H    -5.600000000     1.635000000     0.359000000
C    -5.633000000     3.064000000     2.016000000
O    -6.108000000     4.085000000     1.197000000
C    -5.288000000     3.219000000     3.339000000
H    -5.505000000     4.198000000     3.759000000
C    -4.548000000     2.278000000     3.984000000
O    -4.205000000     2.423000000     5.336000000
C    -3.028000000     1.979000000     5.930000000
C    -1.856000000     2.075000000     5.159000000
H    -1.889000000     2.389000000     4.119000000
C    -2.916000000     1.720000000     7.313000000
H    -3.748000000     1.799000000     8.009000000
C    -1.688000000     1.250000000     7.867000000
H    -1.605000000     0.737000000     8.821000000
C    -0.562000000     1.296000000     7.050000000
H     0.280000000     0.736000000     7.450000000
C    -0.611000000     1.680000000     5.759000000
O     0.555000000     1.932000000     5.124000000
C     1.450000000     0.931000000     4.971000000
C     2.821000000     1.087000000     5.198000000
H     3.231000000     1.934000000     5.742000000
C     3.624000000    -0.045000000     5.074000000
O     5.047000000     0.022000000     5.225000000
C     5.805000000    -0.006000000     4.061000000
C     5.572000000     0.861000000     2.950000000
H     4.910000000     1.711000000     3.093000000
C     6.675000000    -1.072000000     3.838000000
H     6.933000000    -1.649000000     4.723000000
C     7.470000000    -1.142000000     2.688000000
H     8.220000000    -1.911000000     2.516000000
C     7.266000000    -0.252000000     1.638000000
H     7.838000000    -0.361000000     0.720000000
C     6.325000000     0.760000000     1.797000000
O     6.145000000     1.745000000     0.837000000
C     5.461000000     1.486000000    -0.369000000
C     5.493000000     2.394000000    -1.403000000
H     5.987000000     3.340000000    -1.198000000
C     4.769000000     2.109000000    -2.560000000
O     4.805000000     3.067000000    -3.547000000
C     4.001000000     3.077000000    -4.678000000
C     2.752000000     3.661000000    -4.478000000
H     2.456000000     4.050000000    -3.507000000
C     4.431000000     2.569000000    -5.932000000
H     5.434000000     2.165000000    -6.042000000
C     3.579000000     2.758000000    -7.019000000
H     3.828000000     2.313000000    -7.979000000
C     2.305000000     3.278000000    -6.868000000
H     1.548000000     3.369000000    -7.643000000
C     1.921000000     3.834000000    -5.615000000
O     0.698000000     4.427000000    -5.437000000
C    -0.223000000     3.783000000    -4.663000000
C    -0.887000000     4.596000000    -3.725000000
H    -0.738000000     5.672000000    -3.673000000
C    -1.737000000     3.929000000    -2.801000000
O    -2.453000000     4.817000000    -1.939000000
C    -3.875000000     4.716000000    -1.688000000
C    -4.801000000     4.508000000    -2.726000000
H    -4.472000000     4.513000000    -3.762000000
C    -6.091000000     4.199000000    -2.495000000
H    -6.729000000     4.059000000    -3.363000000
C    -6.530000000     4.019000000    -1.186000000
H    -7.537000000     3.636000000    -1.041000000
C    -5.683000000     4.290000000    -0.139000000
C    -4.359000000     4.728000000    -0.370000000
H    -3.699000000     4.851000000     0.486000000
C     1.064000000     1.804000000     1.588000000
H     2.019000000     1.995000000     2.070000000
C     0.771000000     0.570000000     1.114000000
H     1.548000000    -0.169000000     0.934000000
C    -0.466000000     0.364000000     0.509000000
H    -0.641000000    -0.502000000    -0.104000000
C    -1.411000000     1.355000000     0.453000000
H    -2.225000000     1.268000000    -0.263000000
C    -1.105000000     2.632000000     0.934000000
H    -1.828000000     3.439000000     0.844000000
C     0.104000000     2.778000000     1.612000000
C     0.337000000     4.125000000     2.188000000
O    -0.479000000     5.034000000     2.261000000
O     1.441000000     4.391000000     2.546000000
O    -0.514000000     9.724000000     5.669000000
H    -0.641000000     9.575000000     4.732000000
H    -0.508000000     8.847000000     6.052000000
O     2.324000000     6.908000000    -2.381000000
H     2.520000000     6.020000000    -2.082000000
H     2.166000000     7.403000000    -1.577000000
O     2.368000000     8.807000000     4.584000000
H     2.275000000     9.732000000     4.356000000
H     1.554000000     8.403000000     4.282000000
O     1.649000000     6.820000000     1.183000000
H     0.882000000     7.378000000     1.058000000
H     1.338000000     6.105000000     1.738000000
O     4.224000000     4.179000000     3.295000000
H     4.660000000     4.081000000     2.448000000
H     3.290000000     4.187000000     3.084000000
O     5.164000000     5.908000000    -1.961000000
H     5.695000000     5.874000000    -2.756000000
H     4.351000000     5.461000000    -2.197000000
O     4.159000000     7.143000000     3.308000000
H     4.462000000     6.437000000     3.879000000
H     3.551000000     7.645000000     3.850000000
O    -3.623000000     7.681000000     4.803000000
H    -2.925000000     8.236000000     4.456000000
H    -3.418000000     6.805000000     4.475000000
O    -0.344000000     7.200000000     6.666000000
H    -0.651000000     6.479000000     7.216000000
H     0.318000000     6.805000000     6.100000000
O    -1.793000000     9.631000000     3.015000000
H    -1.436000000    10.291000000     2.421000000
H    -1.720000000     8.808000000     2.531000000
O    -1.110000000     7.424000000     1.472000000
H    -1.153000000     6.534000000     1.821000000
H    -1.239000000     7.318000000     0.529000000
O     3.787000000     6.679000000     6.287000000
H     3.512000000     6.946000000     7.164000000
H     2.971000000     6.607000000     5.792000000
O     2.017000000     4.714000000    -0.699000000
H     2.016000000     5.373000000    -0.006000000
H     2.312000000     3.912000000    -0.267000000
O     1.139000000     6.420000000     4.455000000
H     1.441000000     5.619000000     4.028000000
H     0.319000000     6.635000000     4.010000000
O    -1.784000000     8.317000000    -1.115000000
H    -2.494000000     8.626000000    -0.553000000
H    -1.036000000     8.866000000    -0.880000000
O     5.944000000     4.206000000     5.743000000
H     5.134000000     4.272000000     5.237000000
H     5.790000000     4.752000000     6.514000000
O    -2.603000000     5.194000000     3.874000000
H    -2.251000000     4.809000000     4.677000000
H    -1.926000000     5.036000000     3.216000000
O     4.089000000     9.871000000     1.615000000
H     3.936000000     8.926000000     1.626000000
H     4.385000000    10.056000000     0.724000000
O     5.222000000     7.311000000     0.806000000
H     4.933000000     7.088000000     1.690000000
H     6.174000000     7.217000000     0.834000000
