215
-1439.57700
C     3.294000000    -1.988000000     3.612000000
H     3.852000000    -2.580000000     2.890000000
C     1.900000000    -1.982000000     3.575000000
C     1.121000000    -1.221000000     4.488000000
H     0.036000000    -1.232000000     4.433000000
C     1.181000000    -2.799000000     2.550000000
O     2.070000000    -3.846000000     2.022000000
H     0.962000000    -2.092000000     1.736000000
O    -0.024000000    -3.409000000     3.091000000
C    -1.096000000    -3.542000000     2.250000000
C    -2.234000000    -2.800000000     2.568000000
H    -2.259000000    -2.217000000     3.485000000
C    -3.347000000    -2.730000000     1.725000000
O    -4.329000000    -1.734000000     1.933000000
C    -3.419000000    -3.482000000     0.590000000
C    -4.448000000    -3.406000000    -0.414000000
H    -4.485000000    -4.371000000    -0.924000000
C    -4.152000000    -2.222000000    -1.433000000
C    -3.414000000    -2.416000000    -2.594000000
H    -3.040000000    -3.417000000    -2.790000000
H    -5.404000000    -3.345000000     0.110000000
C    -2.313000000    -4.299000000     0.313000000
H    -2.354000000    -4.960000000    -0.549000000
C    -1.167000000    -4.334000000     1.123000000
C    -0.101000000    -5.310000000     0.737000000
H    -0.464000000    -6.203000000     0.223000000
H     0.135000000    -5.672000000     1.739000000
C     1.023000000    -4.628000000    -0.041000000
C     1.007000000    -4.595000000    -1.426000000
H     0.152000000    -4.997000000    -1.965000000
C     2.099000000    -4.032000000     0.652000000
C     3.164000000    -3.520000000    -0.044000000
H     4.021000000    -3.093000000     0.471000000
C     3.129000000    -3.483000000    -1.445000000
O     4.063000000    -2.693000000    -2.066000000
C     3.692000000    -1.305000000    -2.318000000
C     4.778000000    -0.333000000    -1.771000000
C     4.589000000     1.027000000    -1.955000000
H     3.823000000     1.417000000    -2.620000000
C     5.854000000    -0.671000000    -0.938000000
H     5.872000000    -1.698000000    -0.582000000
O     3.266000000    -1.121000000    -3.717000000
H     2.781000000    -1.177000000    -1.714000000
C     2.025000000    -4.031000000    -2.170000000
C     1.948000000    -3.874000000    -3.672000000
H     1.272000000    -4.629000000    -4.079000000
H     2.948000000    -3.888000000    -4.109000000
C     1.282000000    -2.540000000    -3.952000000
C    -0.056000000    -2.609000000    -4.313000000
H    -0.612000000    -3.522000000    -4.113000000
C     1.941000000    -1.340000000    -4.046000000
C     1.284000000    -0.117000000    -4.402000000
H     1.794000000     0.838000000    -4.499000000
C    -0.128000000    -0.182000000    -4.549000000
O    -0.916000000     0.977000000    -4.610000000
C    -1.724000000     1.316000000    -3.385000000
C    -1.485000000     2.843000000    -3.011000000
C    -0.238000000     3.393000000    -2.767000000
H     0.606000000     2.709000000    -2.734000000
C    -2.591000000     3.721000000    -2.876000000
H    -3.543000000     3.271000000    -3.146000000
O    -3.088000000     1.089000000    -3.681000000
H    -1.365000000     0.756000000    -2.509000000
C    -0.809000000    -1.445000000    -4.573000000
C    -2.337000000    -1.519000000    -4.729000000
H    -2.610000000    -2.437000000    -5.254000000
H    -2.569000000    -0.716000000    -5.432000000
C    -3.098000000    -1.336000000    -3.460000000
C    -3.568000000    -0.038000000    -3.114000000
C    -4.316000000     0.120000000    -1.967000000
H    -4.657000000     1.125000000    -1.734000000
C    -4.637000000    -0.946000000    -1.093000000
O    -5.323000000    -0.681000000     0.036000000
C    -4.335000000    -0.545000000     1.123000000
H    -3.296000000    -0.458000000     0.772000000
C    -4.628000000     0.712000000     1.939000000
C    -3.970000000     0.893000000     3.152000000
H    -3.372000000     0.068000000     3.531000000
C    -5.255000000     1.797000000     1.365000000
H    -5.806000000     1.705000000     0.432000000
C    -5.266000000     3.055000000     1.978000000
O    -6.008000000     4.033000000     1.527000000
C    -4.555000000     3.218000000     3.165000000
H    -4.420000000     4.213000000     3.582000000
C    -3.900000000     2.110000000     3.776000000
O    -3.181000000     2.288000000     4.907000000
C    -2.485000000     1.266000000     5.491000000
C    -1.114000000     1.183000000     5.555000000
H    -0.354000000     1.889000000     5.232000000
C    -3.214000000     0.353000000     6.236000000
H    -4.298000000     0.285000000     6.205000000
C    -2.600000000    -0.550000000     7.103000000
H    -3.205000000    -1.298000000     7.609000000
C    -1.192000000    -0.667000000     7.089000000
H    -0.639000000    -1.297000000     7.782000000
C    -0.459000000     0.197000000     6.293000000
O     0.972000000     0.228000000     6.334000000
C     1.763000000    -0.413000000     5.434000000
C     3.165000000    -0.453000000     5.502000000
H     3.680000000     0.109000000     6.277000000
C     3.948000000    -1.190000000     4.620000000
O     5.310000000    -0.941000000     4.562000000
C     6.139000000    -1.431000000     3.535000000
C     6.643000000    -0.545000000     2.578000000
H     6.552000000     0.532000000     2.685000000
C     6.356000000    -2.843000000     3.449000000
H     5.892000000    -3.527000000     4.154000000
C     7.268000000    -3.306000000     2.477000000
H     7.461000000    -4.356000000     2.272000000
C     7.815000000    -2.406000000     1.545000000
H     8.417000000    -2.792000000     0.727000000
C     7.486000000    -1.025000000     1.578000000
O     7.758000000    -0.258000000     0.509000000
C     6.783000000     0.245000000    -0.357000000
C     6.558000000     1.612000000    -0.631000000
H     7.054000000     2.490000000    -0.226000000
C     5.452000000     2.015000000    -1.401000000
O     5.326000000     3.352000000    -1.644000000
C     4.353000000     3.908000000    -2.370000000
C     3.130000000     4.265000000    -1.859000000
H     3.074000000     4.410000000    -0.783000000
C     4.625000000     4.019000000    -3.750000000
H     5.577000000     3.736000000    -4.191000000
C     3.602000000     4.435000000    -4.584000000
H     3.661000000     4.445000000    -5.669000000
C     2.442000000     5.040000000    -4.025000000
H     1.671000000     5.460000000    -4.666000000
C     2.192000000     4.897000000    -2.650000000
O     1.036000000     5.352000000    -2.117000000
C    -0.169000000     4.751000000    -2.421000000
C    -1.277000000     5.555000000    -2.284000000
H    -1.333000000     6.629000000    -2.130000000
C    -2.550000000     4.979000000    -2.460000000
O    -3.716000000     5.681000000    -2.301000000
C    -4.796000000     5.208000000    -1.678000000
C    -5.939000000     5.235000000    -2.447000000
H    -5.941000000     5.645000000    -3.454000000
C    -7.172000000     4.932000000    -1.885000000
H    -8.067000000     5.076000000    -2.484000000
C    -7.171000000     4.578000000    -0.570000000
H    -8.140000000     4.283000000    -0.176000000
C    -5.984000000     4.487000000     0.242000000
C    -4.797000000     4.807000000    -0.358000000
H    -3.847000000     4.791000000     0.168000000
C     0.612000000     2.238000000     2.366000000
H     1.393000000     2.348000000     3.113000000
C     0.489000000     1.118000000     1.620000000
H     1.248000000     0.345000000     1.708000000
C    -0.575000000     0.976000000     0.744000000
H    -0.624000000     0.065000000     0.185000000
C    -1.560000000     2.018000000     0.718000000
H    -2.464000000     1.943000000     0.119000000
C    -1.438000000     3.172000000     1.489000000
H    -2.234000000     3.909000000     1.415000000
C    -0.375000000     3.295000000     2.390000000
C    -0.321000000     4.543000000     3.275000000
O    -1.015000000     5.538000000     3.059000000
O     0.599000000     4.580000000     4.077000000
O     1.540000000     8.330000000     6.924000000
H     0.925000000     8.793000000     7.493000000
H     1.889000000     9.008000000     6.345000000
O    -0.519000000     6.259000000     6.150000000
H    -0.053000000     5.748000000     5.488000000
H     0.154000000     6.821000000     6.536000000
O     5.825000000     3.418000000     2.712000000
H     5.443000000     4.166000000     2.252000000
H     5.071000000     2.938000000     3.054000000
O     1.125000000     3.704000000     6.444000000
H     1.091000000     4.165000000     5.606000000
H     0.428000000     4.103000000     6.965000000
O     3.192000000     4.948000000     3.609000000
H     3.341000000     4.403000000     4.381000000
H     2.245000000     5.085000000     3.593000000
O    -1.243000000     5.251000000     8.968000000
H    -1.794000000     5.879000000     9.435000000
H    -1.853000000     4.581000000     8.659000000
O     1.303000000     2.152000000     8.974000000
H     1.118000000     3.052000000     9.245000000
H     1.103000000     2.138000000     8.038000000
O    -1.564000000     8.272000000     3.383000000
H    -2.430000000     8.014000000     3.699000000
H    -1.163000000     7.454000000     3.090000000
O    -1.705000000     6.583000000     0.725000000
H    -1.573000000     6.108000000     1.546000000
H    -0.821000000     6.809000000     0.435000000
O     3.858000000     2.964000000     5.288000000
H     4.240000000     3.330000000     6.085000000
H     3.025000000     2.586000000     5.572000000
O     4.104000000     8.531000000     4.302000000
H     3.423000000     8.145000000     3.751000000
H     4.285000000     7.862000000     4.962000000
O     0.802000000     7.262000000    -0.106000000
H     1.585000000     7.640000000     0.293000000
H     1.132000000     6.550000000    -0.655000000
O    -3.972000000     8.142000000    -0.141000000
H    -3.474000000     7.330000000    -0.236000000
H    -4.039000000     8.274000000     0.805000000
O     4.722000000     5.586000000     1.328000000
H     4.560000000     6.524000000     1.235000000
H     4.038000000     5.282000000     1.924000000
O     1.236000000     7.783000000     3.408000000
H     0.411000000     8.258000000     3.302000000
H     0.972000000     6.900000000     3.667000000
O    -5.560000000     5.783000000     5.356000000
H    -5.367000000     4.930000000     5.745000000
H    -4.702000000     6.151000000     5.148000000
O    -2.905000000     6.059000000     4.547000000
H    -2.284000000     6.284000000     5.240000000
H    -2.356000000     5.778000000     3.815000000
O     1.486000000    10.701000000     2.251000000
H     0.727000000    10.852000000     2.815000000
H     1.692000000     9.774000000     2.369000000
O     4.687000000     6.263000000     5.955000000
H     4.506000000     5.928000000     6.834000000
H     5.137000000     5.543000000     5.513000000
