215
-1461.54608
C     3.440000000    -2.422000000     3.242000000
H     4.036000000    -3.098000000     2.634000000
C     2.031000000    -2.520000000     3.157000000
C     1.319000000    -1.769000000     4.105000000
H     0.237000000    -1.726000000     4.005000000
C     1.290000000    -3.324000000     2.056000000
O     2.243000000    -4.196000000     1.236000000
H     0.844000000    -2.562000000     1.401000000
O     0.236000000    -4.174000000     2.560000000
C    -1.008000000    -4.163000000     1.924000000
C    -2.132000000    -3.601000000     2.509000000
H    -2.079000000    -3.199000000     3.517000000
C    -3.242000000    -3.445000000     1.741000000
O    -4.126000000    -2.561000000     2.222000000
C    -3.324000000    -3.882000000     0.439000000
C    -4.548000000    -3.537000000    -0.434000000
H    -4.627000000    -4.376000000    -1.128000000
C    -4.154000000    -2.285000000    -1.202000000
C    -3.685000000    -2.304000000    -2.502000000
H    -3.468000000    -3.280000000    -2.929000000
H    -5.516000000    -3.436000000     0.062000000
C    -2.233000000    -4.504000000    -0.113000000
H    -2.210000000    -4.714000000    -1.180000000
C    -1.043000000    -4.708000000     0.631000000
C     0.097000000    -5.445000000    -0.075000000
H    -0.299000000    -6.106000000    -0.849000000
H     0.624000000    -6.016000000     0.692000000
C     1.137000000    -4.505000000    -0.788000000
C     1.126000000    -4.274000000    -2.169000000
H     0.346000000    -4.713000000    -2.786000000
C     2.168000000    -3.949000000    -0.069000000
C     3.026000000    -3.033000000    -0.592000000
H     3.719000000    -2.585000000     0.117000000
C     3.039000000    -2.792000000    -1.970000000
O     3.868000000    -1.848000000    -2.587000000
C     3.258000000    -0.570000000    -2.933000000
C     4.194000000     0.573000000    -2.452000000
C     4.256000000     1.801000000    -3.175000000
H     3.725000000     1.958000000    -4.111000000
C     4.912000000     0.440000000    -1.299000000
H     4.780000000    -0.390000000    -0.610000000
O     2.933000000    -0.512000000    -4.383000000
H     2.378000000    -0.458000000    -2.282000000
C     2.060000000    -3.433000000    -2.740000000
C     1.902000000    -3.360000000    -4.197000000
H     1.389000000    -4.206000000    -4.659000000
H     2.852000000    -3.293000000    -4.731000000
C     1.054000000    -2.166000000    -4.442000000
C    -0.345000000    -2.255000000    -4.479000000
H    -0.780000000    -3.215000000    -4.213000000
C     1.570000000    -0.815000000    -4.610000000
C     0.714000000     0.300000000    -4.696000000
H     1.169000000     1.287000000    -4.683000000
C    -0.688000000     0.193000000    -4.716000000
O    -1.459000000     1.349000000    -4.653000000
C    -1.993000000     1.731000000    -3.327000000
C    -1.874000000     3.154000000    -2.928000000
C    -0.847000000     3.880000000    -3.454000000
H    -0.048000000     3.521000000    -4.098000000
C    -2.675000000     3.681000000    -1.934000000
H    -3.404000000     3.066000000    -1.413000000
O    -3.336000000     1.299000000    -3.181000000
H    -1.376000000     1.177000000    -2.604000000
C    -1.190000000    -1.144000000    -4.598000000
C    -2.674000000    -1.316000000    -4.535000000
H    -2.890000000    -2.347000000    -4.823000000
H    -3.228000000    -0.695000000    -5.243000000
C    -3.323000000    -1.167000000    -3.179000000
C    -3.559000000     0.055000000    -2.539000000
C    -4.146000000     0.152000000    -1.279000000
H    -4.376000000     1.124000000    -0.848000000
C    -4.307000000    -1.057000000    -0.583000000
O    -4.713000000    -0.950000000     0.720000000
C    -3.894000000    -1.249000000     1.833000000
H    -2.834000000    -1.223000000     1.543000000
C    -4.193000000    -0.268000000     2.914000000
C    -3.884000000    -0.565000000     4.268000000
H    -3.477000000    -1.507000000     4.628000000
C    -4.577000000     1.076000000     2.639000000
H    -4.968000000     1.385000000     1.673000000
C    -4.682000000     2.037000000     3.642000000
O    -5.060000000     3.370000000     3.395000000
C    -4.472000000     1.642000000     4.959000000
H    -4.629000000     2.407000000     5.715000000
C    -3.960000000     0.414000000     5.255000000
O    -3.460000000     0.155000000     6.509000000
C    -2.328000000    -0.510000000     6.790000000
C    -1.105000000     0.000000000     6.326000000
H    -1.195000000     0.773000000     5.567000000
C    -2.392000000    -1.557000000     7.691000000
H    -3.355000000    -1.899000000     8.061000000
C    -1.190000000    -2.189000000     8.032000000
H    -1.232000000    -2.968000000     8.790000000
C     0.047000000    -1.892000000     7.450000000
H     0.927000000    -2.498000000     7.650000000
C     0.044000000    -0.756000000     6.562000000
O     1.195000000    -0.303000000     5.984000000
C     1.957000000    -1.053000000     5.111000000
C     3.347000000    -0.850000000     5.043000000
H     3.871000000    -0.170000000     5.710000000
C     4.070000000    -1.584000000     4.189000000
O     5.422000000    -1.495000000     4.158000000
C     6.070000000    -1.130000000     2.984000000
C     5.798000000     0.019000000     2.190000000
H     5.031000000     0.742000000     2.454000000
C     7.207000000    -1.905000000     2.695000000
H     7.511000000    -2.725000000     3.339000000
C     8.049000000    -1.611000000     1.651000000
H     8.983000000    -2.100000000     1.388000000
C     7.721000000    -0.502000000     0.850000000
H     8.320000000    -0.150000000     0.015000000
C     6.638000000     0.335000000     1.129000000
O     6.378000000     1.499000000     0.399000000
C     5.649000000     1.546000000    -0.793000000
C     5.531000000     2.803000000    -1.371000000
H     6.043000000     3.634000000    -0.893000000
C     4.853000000     2.933000000    -2.604000000
O     4.798000000     4.131000000    -3.248000000
C     3.811000000     4.643000000    -4.070000000
C     2.603000000     4.911000000    -3.373000000
H     2.537000000     4.723000000    -2.305000000
C     3.997000000     4.915000000    -5.419000000
H     4.971000000     4.904000000    -5.902000000
C     3.046000000     5.654000000    -6.029000000
H     3.261000000     6.132000000    -6.981000000
C     1.808000000     5.983000000    -5.407000000
H     1.159000000     6.648000000    -5.970000000
C     1.567000000     5.563000000    -4.109000000
O     0.447000000     6.011000000    -3.486000000
C    -0.619000000     5.221000000    -2.993000000
C    -1.573000000     5.827000000    -2.184000000
H    -1.521000000     6.887000000    -1.950000000
C    -2.530000000     5.003000000    -1.582000000
O    -3.154000000     5.523000000    -0.485000000
C    -4.218000000     4.796000000     0.166000000
C    -5.439000000     4.701000000    -0.500000000
H    -5.666000000     5.158000000    -1.460000000
C    -6.545000000     4.194000000     0.174000000
H    -7.521000000     4.154000000    -0.303000000
C    -6.439000000     3.726000000     1.469000000
H    -7.314000000     3.377000000     2.011000000
C    -5.173000000     3.844000000     2.092000000
C    -4.042000000     4.375000000     1.467000000
H    -3.057000000     4.568000000     1.884000000
C     1.352000000     1.059000000     2.019000000
H     2.381000000     1.130000000     2.364000000
C     1.135000000     0.179000000     0.944000000
H     1.982000000    -0.428000000     0.637000000
C    -0.111000000    -0.068000000     0.369000000
H    -0.165000000    -0.766000000    -0.507000000
C    -1.209000000     0.683000000     0.889000000
H    -2.124000000     0.478000000     0.339000000
C    -1.027000000     1.537000000     2.059000000
H    -1.837000000     1.992000000     2.623000000
C     0.234000000     1.677000000     2.593000000
C     0.453000000     2.504000000     3.824000000
O    -0.433000000     2.782000000     4.611000000
O     1.579000000     2.843000000     4.077000000
O     0.825000000     7.757000000     0.116000000
H     1.311000000     7.051000000     0.541000000
H     1.376000000     8.017000000    -0.622000000
O     1.670000000     3.026000000     6.946000000
H     0.916000000     2.969000000     7.533000000
H     1.339000000     2.726000000     6.100000000
O    -1.469000000     5.417000000     4.606000000
H    -1.286000000     4.482000000     4.519000000
H    -1.167000000     5.798000000     3.782000000
O     3.777000000     4.830000000     6.897000000
H     3.101000000     4.158000000     6.819000000
H     4.226000000     4.818000000     6.052000000
O     1.090000000     8.339000000     5.362000000
H     1.015000000     8.277000000     6.315000000
H     1.185000000     7.433000000     5.070000000
O     3.405000000     4.268000000     2.469000000
H     3.059000000     5.125000000     2.217000000
H     2.699000000     3.864000000     2.973000000
O     4.158000000     2.281000000     4.618000000
H     3.202000000     2.251000000     4.567000000
H     4.422000000     2.808000000     3.864000000
O     3.194000000     1.154000000     8.688000000
H     3.031000000     1.614000000     7.865000000
H     3.477000000     1.838000000     9.294000000
O     4.892000000     5.279000000     4.542000000
H     4.390000000     4.831000000     3.862000000
H     5.802000000     5.210000000     4.254000000
O     5.905000000     1.889000000     6.654000000
H     5.192000000     1.903000000     6.015000000
H     5.795000000     2.697000000     7.154000000
O    -1.533000000     5.780000000     7.236000000
H    -1.706000000     5.727000000     6.296000000
H    -1.407000000     6.714000000     7.404000000
O    -1.098000000     3.140000000     7.143000000
H    -0.955000000     2.966000000     6.212000000
H    -0.982000000     4.086000000     7.231000000
O     6.265000000     3.127000000     2.841000000
H     6.489000000     2.579000000     2.089000000
H     5.471000000     3.590000000     2.571000000
O     2.966000000     7.070000000     2.155000000
H     2.603000000     7.899000000     2.465000000
H     3.659000000     7.325000000     1.546000000
O     1.046000000     2.774000000    -0.697000000
H     0.120000000     3.014000000    -0.674000000
H     1.130000000     2.083000000    -0.041000000
O     1.661000000     5.534000000     9.195000000
H     0.751000000     5.655000000     9.465000000
H     1.652000000     5.679000000     8.249000000
O    -3.275000000     1.913000000     9.181000000
H    -2.629000000     2.432000000     8.702000000
H    -3.213000000     1.038000000     8.798000000
O     1.519000000     5.685000000     4.643000000
H     2.405000000     5.805000000     4.299000000
H     1.450000000     4.744000000     4.801000000
O    -1.213000000     7.012000000     2.539000000
H    -0.919000000     6.994000000     1.628000000
H    -0.878000000     7.841000000     2.881000000
