215
-1454.36171
C     3.255000000    -1.388000000     4.054000000
H     3.923000000    -2.123000000     3.612000000
C     1.902000000    -1.645000000     3.984000000
C     1.059000000    -0.855000000     4.740000000
H    -0.015000000    -1.007000000     4.661000000
C     1.333000000    -2.679000000     2.947000000
O     2.401000000    -3.669000000     2.541000000
H     0.989000000    -2.072000000     2.096000000
O     0.174000000    -3.313000000     3.481000000
C    -0.914000000    -3.561000000     2.705000000
C    -2.037000000    -2.771000000     2.909000000
H    -2.051000000    -2.044000000     3.717000000
C    -3.132000000    -2.865000000     2.084000000
O    -4.114000000    -2.016000000     2.262000000
C    -3.128000000    -3.825000000     1.062000000
C    -4.171000000    -3.816000000    -0.017000000
H    -4.312000000    -4.764000000    -0.542000000
C    -4.025000000    -2.661000000    -0.992000000
C    -3.205000000    -2.974000000    -2.069000000
H    -2.787000000    -3.974000000    -2.143000000
H    -5.132000000    -3.788000000     0.500000000
C    -1.984000000    -4.622000000     0.776000000
H    -1.908000000    -5.297000000    -0.073000000
C    -0.830000000    -4.457000000     1.651000000
C     0.387000000    -5.268000000     1.371000000
H     0.253000000    -6.203000000     0.824000000
H     0.768000000    -5.595000000     2.341000000
C     1.433000000    -4.508000000     0.549000000
C     1.406000000    -4.490000000    -0.847000000
H     0.607000000    -5.025000000    -1.352000000
C     2.449000000    -3.800000000     1.154000000
C     3.459000000    -3.144000000     0.453000000
H     4.238000000    -2.670000000     1.044000000
C     3.445000000    -3.182000000    -0.941000000
O     4.193000000    -2.257000000    -1.579000000
C     3.555000000    -1.091000000    -2.154000000
C     4.393000000     0.189000000    -1.795000000
C     4.425000000     1.277000000    -2.682000000
H     3.773000000     1.300000000    -3.551000000
C     5.106000000     0.288000000    -0.610000000
H     4.998000000    -0.462000000     0.169000000
O     3.289000000    -1.233000000    -3.540000000
H     2.586000000    -0.896000000    -1.672000000
C     2.380000000    -3.806000000    -1.577000000
C     2.263000000    -3.822000000    -3.083000000
H     1.728000000    -4.739000000    -3.340000000
H     3.252000000    -3.945000000    -3.531000000
C     1.423000000    -2.747000000    -3.639000000
C     0.067000000    -3.033000000    -3.807000000
H    -0.212000000    -4.068000000    -3.625000000
C     1.929000000    -1.498000000    -3.740000000
C     1.012000000    -0.488000000    -4.168000000
H     1.369000000     0.534000000    -4.270000000
C    -0.298000000    -0.827000000    -4.389000000
O    -1.074000000     0.314000000    -4.725000000
C    -1.752000000     0.879000000    -3.631000000
C    -1.648000000     2.381000000    -3.627000000
C    -0.496000000     3.030000000    -4.118000000
H     0.215000000     2.353000000    -4.584000000
C    -2.612000000     3.240000000    -3.008000000
H    -3.528000000     2.777000000    -2.652000000
O    -3.149000000     0.446000000    -3.631000000
H    -1.237000000     0.392000000    -2.789000000
C    -0.845000000    -2.103000000    -4.228000000
C    -2.299000000    -2.444000000    -4.365000000
H    -2.386000000    -3.524000000    -4.499000000
H    -2.888000000    -1.998000000    -5.169000000
C    -2.979000000    -2.044000000    -3.066000000
C    -3.533000000    -0.709000000    -2.915000000
C    -4.300000000    -0.370000000    -1.743000000
H    -4.562000000     0.677000000    -1.611000000
C    -4.466000000    -1.367000000    -0.766000000
O    -5.078000000    -1.015000000     0.407000000
C    -4.097000000    -0.813000000     1.419000000
H    -3.094000000    -0.594000000     1.024000000
C    -4.339000000     0.513000000     2.170000000
C    -3.967000000     0.720000000     3.464000000
H    -3.557000000    -0.135000000     3.994000000
C    -4.739000000     1.602000000     1.433000000
H    -5.155000000     1.528000000     0.431000000
C    -5.024000000     2.824000000     2.122000000
O    -5.807000000     3.843000000     1.597000000
C    -4.725000000     2.940000000     3.447000000
H    -4.976000000     3.842000000     4.000000000
C    -4.185000000     1.901000000     4.156000000
O    -3.858000000     2.089000000     5.514000000
C    -2.928000000     1.190000000     6.047000000
C    -1.582000000     1.440000000     6.008000000
H    -1.298000000     2.413000000     5.616000000
C    -3.417000000    -0.008000000     6.663000000
H    -4.500000000    -0.074000000     6.727000000
C    -2.511000000    -0.881000000     7.260000000
H    -2.823000000    -1.820000000     7.710000000
C    -1.168000000    -0.622000000     7.170000000
H    -0.466000000    -1.329000000     7.602000000
C    -0.702000000     0.521000000     6.524000000
O     0.609000000     0.837000000     6.392000000
C     1.486000000     0.162000000     5.559000000
C     2.826000000     0.440000000     5.573000000
H     3.167000000     1.230000000     6.238000000
C     3.732000000    -0.366000000     4.849000000
O     5.065000000     0.063000000     4.892000000
C     5.929000000    -0.151000000     3.840000000
C     5.932000000     0.746000000     2.778000000
H     5.388000000     1.672000000     2.943000000
C     6.738000000    -1.295000000     3.807000000
H     6.704000000    -2.079000000     4.559000000
C     7.552000000    -1.528000000     2.656000000
H     7.999000000    -2.505000000     2.490000000
C     7.562000000    -0.587000000     1.657000000
H     8.171000000    -0.766000000     0.775000000
C     6.757000000     0.531000000     1.659000000
O     6.736000000     1.464000000     0.681000000
C     5.940000000     1.389000000    -0.396000000
C     6.025000000     2.402000000    -1.339000000
H     6.761000000     3.189000000    -1.196000000
C     5.159000000     2.414000000    -2.393000000
O     5.046000000     3.533000000    -3.166000000
C     4.177000000     3.664000000    -4.163000000
C     2.910000000     4.284000000    -3.848000000
H     2.628000000     4.454000000    -2.812000000
C     4.476000000     3.338000000    -5.484000000
H     5.473000000     2.995000000    -5.745000000
C     3.550000000     3.590000000    -6.485000000
H     3.832000000     3.402000000    -7.518000000
C     2.313000000     4.267000000    -6.212000000
H     1.635000000     4.520000000    -7.024000000
C     1.958000000     4.466000000    -4.865000000
O     0.769000000     5.030000000    -4.488000000
C    -0.324000000     4.382000000    -4.004000000
C    -1.302000000     5.173000000    -3.488000000
H    -1.044000000     6.221000000    -3.359000000
C    -2.489000000     4.618000000    -2.988000000
O    -3.356000000     5.409000000    -2.227000000
C    -4.581000000     4.885000000    -1.628000000
C    -5.806000000     4.828000000    -2.381000000
H    -5.860000000     5.217000000    -3.395000000
C    -7.008000000     4.437000000    -1.774000000
H    -7.967000000     4.375000000    -2.281000000
C    -6.942000000     4.071000000    -0.408000000
H    -7.826000000     3.798000000     0.163000000
C    -5.788000000     4.142000000     0.267000000
C    -4.541000000     4.463000000    -0.319000000
H    -3.643000000     4.517000000     0.291000000
C     0.854000000     1.878000000     1.930000000
H     1.686000000     2.117000000     2.588000000
C     0.872000000     0.658000000     1.234000000
H     1.729000000    -0.011000000     1.244000000
C    -0.151000000     0.394000000     0.318000000
H    -0.092000000    -0.455000000    -0.360000000
C    -1.240000000     1.248000000     0.269000000
H    -1.994000000     0.969000000    -0.463000000
C    -1.362000000     2.332000000     1.110000000
H    -2.331000000     2.822000000     1.166000000
C    -0.275000000     2.650000000     1.956000000
C    -0.359000000     3.821000000     2.868000000
O    -1.253000000     4.587000000     2.794000000
O     0.391000000     3.988000000     3.794000000
O     1.315000000     6.282000000    -1.720000000
H     1.483000000     5.687000000    -0.988000000
H     0.604000000     6.845000000    -1.413000000
O     1.487000000     3.587000000     6.281000000
H     1.131000000     3.806000000     5.420000000
H     0.982000000     2.824000000     6.562000000
O    -3.213000000     6.438000000     2.468000000
H    -2.542000000     5.756000000     2.502000000
H    -3.061000000     6.882000000     1.633000000
O    -0.914000000     8.799000000     4.313000000
H    -1.538000000     8.598000000     5.011000000
H    -0.566000000     7.947000000     4.049000000
O     2.840000000     4.886000000     3.006000000
H     2.749000000     5.808000000     2.765000000
H     1.964000000     4.626000000     3.294000000
O     3.899000000     3.920000000     5.296000000
H     2.978000000     3.794000000     5.526000000
H     3.875000000     4.355000000     4.444000000
O     4.259000000     5.038000000    -0.517000000
H     3.488000000     4.491000000    -0.363000000
H     4.378000000     5.021000000    -1.467000000
O    -1.020000000     5.044000000     8.123000000
H    -1.689000000     5.059000000     7.438000000
H    -0.206000000     4.848000000     7.659000000
O    -2.095000000     5.457000000     5.354000000
H    -1.752000000     5.051000000     4.557000000
H    -3.019000000     5.207000000     5.371000000
O     5.441000000     5.246000000     2.195000000
H     4.907000000     4.547000000     2.573000000
H     5.377000000     5.112000000     1.250000000
O    -4.973000000     7.752000000     4.079000000
H    -5.167000000     7.183000000     4.824000000
H    -4.482000000     7.196000000     3.474000000
O     1.849000000     3.645000000    -0.184000000
H     1.380000000     3.260000000    -0.924000000
H     1.560000000     3.136000000     0.574000000
O     2.946000000     2.695000000     8.535000000
H     3.469000000     3.394000000     8.928000000
H     2.616000000     3.072000000     7.720000000
O     1.009000000     7.845000000     1.115000000
H     0.842000000     7.711000000     2.048000000
H     0.233000000     8.307000000     0.797000000
O     0.514000000     6.694000000     3.861000000
H     0.062000000     5.851000000     3.901000000
H     1.137000000     6.666000000     4.588000000
O    -2.228000000     7.874000000     6.447000000
H    -2.991000000     7.803000000     7.022000000
H    -2.071000000     6.979000000     6.146000000
O     3.628000000     7.658000000    -0.084000000
H     2.826000000     7.931000000     0.361000000
H     3.656000000     6.708000000     0.035000000
O    -2.909000000     7.360000000    -0.186000000
H    -2.601000000     8.183000000    -0.564000000
H    -2.862000000     6.732000000    -0.907000000
O     2.785000000     6.757000000     5.856000000
H     3.229000000     7.529000000     6.208000000
H     3.430000000     6.054000000     5.934000000
