215
-1470.66689
C     3.367000000    -2.586000000     3.620000000
H     3.970000000    -3.242000000     2.998000000
C     1.938000000    -2.501000000     3.560000000
C     1.329000000    -1.477000000     4.336000000
H     0.251000000    -1.406000000     4.217000000
C     1.089000000    -3.249000000     2.550000000
O     1.948000000    -4.210000000     1.927000000
H     0.621000000    -2.580000000     1.813000000
O     0.012000000    -3.978000000     3.213000000
C    -1.188000000    -4.016000000     2.489000000
C    -2.170000000    -3.146000000     2.911000000
H    -1.964000000    -2.634000000     3.848000000
C    -3.227000000    -2.859000000     2.115000000
O    -4.009000000    -1.817000000     2.535000000
C    -3.394000000    -3.575000000     0.939000000
C    -4.483000000    -3.244000000    -0.078000000
H    -4.590000000    -4.184000000    -0.623000000
C    -4.053000000    -2.082000000    -0.987000000
C    -3.677000000    -2.254000000    -2.313000000
H    -3.564000000    -3.258000000    -2.712000000
H    -5.422000000    -2.941000000     0.390000000
C    -2.408000000    -4.526000000     0.492000000
H    -2.514000000    -4.997000000    -0.482000000
C    -1.285000000    -4.722000000     1.276000000
C    -0.147000000    -5.535000000     0.802000000
H    -0.550000000    -6.357000000     0.206000000
H     0.345000000    -6.090000000     1.604000000
C     0.875000000    -4.782000000    -0.019000000
C     0.793000000    -4.640000000    -1.390000000
H    -0.058000000    -5.201000000    -1.767000000
C     1.982000000    -4.283000000     0.621000000
C     2.992000000    -3.579000000    -0.111000000
H     3.710000000    -3.041000000     0.504000000
C     2.892000000    -3.388000000    -1.516000000
O     3.764000000    -2.534000000    -2.114000000
C     3.284000000    -1.300000000    -2.679000000
C     4.097000000    -0.041000000    -2.303000000
C     4.245000000     1.038000000    -3.165000000
H     3.933000000     0.987000000    -4.205000000
C     4.701000000     0.012000000    -1.064000000
H     4.762000000    -0.875000000    -0.439000000
O     2.871000000    -1.469000000    -4.091000000
H     2.316000000    -1.081000000    -2.206000000
C     1.761000000    -4.000000000    -2.180000000
C     1.505000000    -3.941000000    -3.690000000
H     0.993000000    -4.843000000    -4.031000000
H     2.519000000    -3.962000000    -4.095000000
C     0.793000000    -2.654000000    -4.158000000
C    -0.616000000    -2.585000000    -4.301000000
H    -1.164000000    -3.509000000    -4.133000000
C     1.510000000    -1.483000000    -4.336000000
C     0.885000000    -0.278000000    -4.469000000
H     1.481000000     0.627000000    -4.392000000
C    -0.514000000    -0.148000000    -4.573000000
O    -1.111000000     1.105000000    -4.472000000
C    -1.772000000     1.643000000    -3.315000000
C    -1.642000000     3.195000000    -3.193000000
C    -0.551000000     3.802000000    -3.772000000
H     0.110000000     3.211000000    -4.400000000
C    -2.473000000     3.930000000    -2.318000000
H    -3.234000000     3.358000000    -1.795000000
O    -3.154000000     1.183000000    -3.380000000
H    -1.267000000     1.191000000    -2.448000000
C    -1.253000000    -1.324000000    -4.535000000
C    -2.732000000    -1.337000000    -4.563000000
H    -3.235000000    -2.226000000    -4.948000000
H    -2.864000000    -0.484000000    -5.233000000
C    -3.322000000    -1.175000000    -3.137000000
C    -3.497000000     0.148000000    -2.594000000
C    -3.944000000     0.338000000    -1.262000000
H    -4.137000000     1.338000000    -0.882000000
C    -4.159000000    -0.770000000    -0.484000000
O    -4.723000000    -0.411000000     0.739000000
C    -3.858000000    -0.554000000     1.916000000
H    -2.841000000    -0.356000000     1.548000000
C    -3.956000000     0.574000000     2.854000000
C    -3.609000000     0.447000000     4.211000000
H    -3.201000000    -0.510000000     4.527000000
C    -4.433000000     1.799000000     2.396000000
H    -4.691000000     1.860000000     1.342000000
C    -4.431000000     2.966000000     3.148000000
O    -4.908000000     4.160000000     2.725000000
C    -4.011000000     2.822000000     4.490000000
H    -3.949000000     3.740000000     5.070000000
C    -3.675000000     1.596000000     5.047000000
O    -3.133000000     1.508000000     6.347000000
C    -2.106000000     0.708000000     6.647000000
C    -0.850000000     0.822000000     6.057000000
H    -0.742000000     1.687000000     5.408000000
C    -2.316000000    -0.330000000     7.568000000
H    -3.329000000    -0.495000000     7.927000000
C    -1.266000000    -1.206000000     7.962000000
H    -1.366000000    -2.043000000     8.649000000
C     0.023000000    -1.006000000     7.418000000
H     0.852000000    -1.638000000     7.724000000
C     0.183000000    -0.006000000     6.418000000
O     1.430000000     0.325000000     5.907000000
C     2.061000000    -0.665000000     5.148000000
C     3.487000000    -0.831000000     5.281000000
H     4.073000000    -0.141000000     5.882000000
C     4.107000000    -1.734000000     4.381000000
O     5.492000000    -1.788000000     4.313000000
C     6.081000000    -1.388000000     3.152000000
C     5.770000000    -0.164000000     2.445000000
H     4.872000000     0.347000000     2.783000000
C     7.056000000    -2.191000000     2.586000000
H     7.350000000    -3.101000000     3.104000000
C     7.692000000    -1.855000000     1.356000000
H     8.330000000    -2.620000000     0.920000000
C     7.347000000    -0.653000000     0.684000000
H     7.705000000    -0.482000000    -0.328000000
C     6.337000000     0.138000000     1.175000000
O     5.967000000     1.293000000     0.517000000
C     5.301000000     1.201000000    -0.674000000
C     5.318000000     2.299000000    -1.415000000
H     5.821000000     3.180000000    -1.025000000
C     4.820000000     2.203000000    -2.693000000
O     4.758000000     3.322000000    -3.510000000
C     3.737000000     3.714000000    -4.292000000
C     2.707000000     4.547000000    -3.812000000
H     2.742000000     4.872000000    -2.775000000
C     3.772000000     3.402000000    -5.681000000
H     4.590000000     2.783000000    -6.040000000
C     2.906000000     4.057000000    -6.562000000
H     2.955000000     3.932000000    -7.641000000
C     1.881000000     4.824000000    -6.076000000
H     0.985000000     5.097000000    -6.626000000
C     1.799000000     5.127000000    -4.674000000
O     0.742000000     5.824000000    -4.106000000
C    -0.362000000     5.177000000    -3.588000000
C    -1.320000000     5.901000000    -2.898000000
H    -1.080000000     6.909000000    -2.568000000
C    -2.268000000     5.317000000    -2.146000000
O    -3.183000000     6.059000000    -1.397000000
C    -4.172000000     5.425000000    -0.600000000
C    -5.277000000     5.029000000    -1.331000000
H    -5.433000000     5.183000000    -2.395000000
C    -6.270000000     4.287000000    -0.714000000
H    -7.196000000     4.114000000    -1.257000000
C    -6.134000000     4.022000000     0.696000000
H    -6.940000000     3.588000000     1.283000000
C    -5.039000000     4.515000000     1.432000000
C    -4.067000000     5.229000000     0.786000000
H    -3.150000000     5.576000000     1.255000000
C     1.575000000     0.747000000     2.033000000
H     2.534000000     0.648000000     2.535000000
C     1.162000000    -0.215000000     1.074000000
H     1.858000000    -1.017000000     0.843000000
C    -0.015000000    -0.085000000     0.381000000
H    -0.205000000    -0.748000000    -0.471000000
C    -0.867000000     0.924000000     0.729000000
H    -1.792000000     1.090000000     0.182000000
C    -0.549000000     1.830000000     1.765000000
H    -1.220000000     2.590000000     2.157000000
C     0.664000000     1.671000000     2.456000000
C     1.089000000     2.717000000     3.460000000
O     0.187000000     3.334000000     3.963000000
O     2.273000000     2.983000000     3.583000000
O     0.415000000     6.157000000    -0.193000000
H     1.167000000     6.399000000     0.347000000
H     0.257000000     6.924000000    -0.743000000
O     4.810000000     3.008000000     6.853000000
H     3.877000000     2.893000000     7.030000000
H     4.888000000     2.913000000     5.904000000
O    -1.119000000     4.869000000     5.639000000
H    -0.728000000     4.283000000     4.991000000
H    -1.558000000     5.543000000     5.120000000
O     2.061000000     7.622000000     4.388000000
H     1.555000000     7.511000000     5.193000000
H     2.133000000     6.739000000     4.027000000
O     3.680000000     4.237000000     0.621000000
H     3.143000000     3.935000000    -0.111000000
H     3.288000000     3.826000000     1.392000000
O     5.035000000     2.694000000     4.140000000
H     4.133000000     2.635000000     3.825000000
H     5.509000000     3.128000000     3.430000000
O     2.683000000     0.242000000     8.755000000
H     2.028000000     0.153000000     8.062000000
H     2.493000000     1.090000000     9.156000000
O     5.386000000     5.895000000     5.158000000
H     6.147000000     5.333000000     5.306000000
H     5.244000000     6.331000000     5.998000000
O     1.099000000     6.865000000     6.987000000
H     0.939000000     7.339000000     7.803000000
H     0.240000000     6.525000000     6.736000000
O    -1.526000000     3.201000000     8.326000000
H    -1.831000000     3.263000000     7.421000000
H    -1.679000000     4.074000000     8.690000000
O     1.963000000     3.670000000     6.284000000
H     1.959000000     3.665000000     5.327000000
H     1.087000000     3.971000000     6.526000000
O     6.074000000     4.198000000     1.976000000
H     6.740000000     4.750000000     1.566000000
H     5.255000000     4.459000000     1.554000000
O     2.532000000     6.979000000     1.294000000
H     2.716000000     6.989000000     2.233000000
H     2.938000000     6.172000000     0.979000000
O     1.106000000     3.621000000    -0.763000000
H     0.731000000     3.205000000     0.013000000
H     0.815000000     4.532000000    -0.710000000
O     3.661000000     7.904000000     6.711000000
H     2.964000000     7.252000000     6.791000000
H     3.654000000     8.150000000     5.787000000
O     1.176000000     2.570000000     8.884000000
H     0.225000000     2.671000000     8.842000000
H     1.492000000     2.932000000     8.057000000
O     3.260000000     5.339000000     3.565000000
H     2.968000000     4.454000000     3.782000000
H     4.171000000     5.369000000     3.857000000
O    -2.084000000     6.998000000     3.515000000
H    -1.745000000     6.285000000     2.974000000
H    -1.587000000     7.768000000     3.237000000
O    -0.816000000     4.948000000     2.031000000
H    -0.404000000     4.448000000     2.736000000
H    -0.211000000     4.865000000     1.293000000
