215
-1457.27005
C    -5.206000000    -0.883000000    -1.361000000
H    -5.262000000    -0.120000000    -2.133000000
C    -4.687000000    -0.521000000    -0.114000000
C    -4.833000000    -1.415000000     0.945000000
H    -4.465000000    -1.113000000     1.922000000
C    -4.020000000     0.865000000     0.150000000
O    -4.468000000     1.826000000    -0.848000000
H    -2.923000000     0.788000000     0.144000000
O    -4.404000000     1.420000000     1.523000000
C    -3.490000000     2.008000000     2.243000000
C    -2.784000000     1.252000000     3.187000000
H    -3.112000000     0.250000000     3.452000000
C    -1.669000000     1.785000000     3.790000000
O    -0.951000000     0.960000000     4.618000000
C    -1.210000000     3.059000000     3.469000000
C    -0.031000000     3.774000000     4.245000000
H    -0.215000000     4.849000000     4.194000000
C     1.330000000     3.459000000     3.620000000
C     1.890000000     4.165000000     2.557000000
H     1.372000000     5.080000000     2.282000000
H     0.015000000     3.473000000     5.294000000
C    -1.956000000     3.859000000     2.621000000
H    -1.665000000     4.893000000     2.455000000
C    -3.114000000     3.345000000     1.999000000
C    -3.647000000     4.090000000     0.834000000
H    -3.740000000     5.166000000     0.997000000
H    -4.731000000     4.010000000     0.729000000
C    -3.066000000     3.747000000    -0.583000000
C    -2.005000000     4.450000000    -1.035000000
H    -1.754000000     5.328000000    -0.445000000
C    -3.611000000     2.746000000    -1.377000000
C    -3.154000000     2.525000000    -2.655000000
H    -3.649000000     1.741000000    -3.222000000
C    -2.079000000     3.250000000    -3.097000000
O    -1.394000000     2.757000000    -4.241000000
C    -0.375000000     1.837000000    -3.890000000
C    -0.419000000     0.551000000    -4.782000000
C     0.743000000    -0.009000000    -5.243000000
H     1.678000000     0.502000000    -5.026000000
C    -1.617000000    -0.132000000    -4.991000000
H    -2.580000000     0.238000000    -4.648000000
O     0.899000000     2.553000000    -3.995000000
H    -0.370000000     1.514000000    -2.839000000
C    -1.465000000     4.213000000    -2.336000000
C    -0.240000000     4.952000000    -2.826000000
H    -0.256000000     6.020000000    -2.600000000
H    -0.293000000     4.898000000    -3.916000000
C     0.991000000     4.311000000    -2.352000000
C     1.741000000     4.748000000    -1.224000000
H     1.470000000     5.637000000    -0.661000000
C     1.488000000     3.143000000    -2.987000000
C     2.628000000     2.497000000    -2.528000000
H     3.010000000     1.617000000    -3.039000000
C     3.333000000     2.941000000    -1.450000000
O     4.391000000     2.192000000    -1.028000000
C     4.114000000     1.346000000     0.108000000
C     4.596000000    -0.112000000    -0.031000000
C     4.247000000    -0.800000000    -1.159000000
H     3.679000000    -0.330000000    -1.958000000
C     5.329000000    -0.733000000     0.994000000
H     5.696000000    -0.178000000     1.854000000
O     4.480000000     1.895000000     1.377000000
H     3.014000000     1.310000000     0.102000000
C     2.859000000     4.083000000    -0.789000000
C     3.478000000     4.504000000     0.548000000
H     3.291000000     5.573000000     0.668000000
H     4.556000000     4.447000000     0.383000000
C     2.960000000     3.720000000     1.754000000
C     3.571000000     2.589000000     2.164000000
C     3.097000000     1.865000000     3.215000000
H     3.617000000     0.945000000     3.467000000
C     1.969000000     2.274000000     4.006000000
O     1.445000000     1.354000000     4.839000000
C     0.407000000     0.546000000     4.198000000
H     0.306000000     0.727000000     3.118000000
C     0.585000000    -0.920000000     4.419000000
C    -0.461000000    -1.808000000     4.062000000
H    -1.443000000    -1.486000000     3.725000000
C     1.799000000    -1.458000000     4.846000000
H     2.530000000    -0.719000000     5.163000000
C     1.954000000    -2.863000000     4.980000000
O     3.133000000    -3.493000000     5.425000000
C     0.891000000    -3.717000000     4.593000000
H     1.043000000    -4.792000000     4.640000000
C    -0.316000000    -3.164000000     4.267000000
O    -1.237000000    -3.970000000     3.694000000
C    -2.620000000    -3.950000000     3.926000000
C    -3.457000000    -3.630000000     2.855000000
H    -3.005000000    -3.426000000     1.887000000
C    -3.220000000    -4.214000000     5.119000000
H    -2.591000000    -4.386000000     5.989000000
C    -4.614000000    -4.351000000     5.260000000
H    -5.024000000    -4.555000000     6.246000000
C    -5.477000000    -4.161000000     4.117000000
H    -6.558000000    -4.250000000     4.182000000
C    -4.846000000    -3.703000000     2.947000000
O    -5.608000000    -3.535000000     1.797000000
C    -5.394000000    -2.661000000     0.747000000
C    -5.837000000    -3.060000000    -0.487000000
H    -6.229000000    -4.066000000    -0.615000000
C    -5.795000000    -2.148000000    -1.499000000
O    -6.294000000    -2.629000000    -2.674000000
C    -5.870000000    -2.115000000    -3.858000000
C    -4.592000000    -2.366000000    -4.221000000
H    -3.938000000    -2.987000000    -3.614000000
C    -6.724000000    -1.313000000    -4.650000000
H    -7.686000000    -1.047000000    -4.220000000
C    -6.183000000    -0.757000000    -5.806000000
H    -6.861000000    -0.175000000    -6.425000000
C    -4.832000000    -1.022000000    -6.146000000
H    -4.408000000    -0.533000000    -7.019000000
C    -4.067000000    -1.939000000    -5.438000000
O    -2.778000000    -2.225000000    -5.757000000
C    -1.678000000    -1.326000000    -5.751000000
C    -0.466000000    -1.817000000    -6.201000000
H    -0.418000000    -2.842000000    -6.561000000
C     0.692000000    -1.168000000    -6.025000000
O     1.837000000    -1.766000000    -6.411000000
C     2.963000000    -1.804000000    -5.615000000
C     2.927000000    -2.436000000    -4.318000000
H     2.024000000    -2.856000000    -3.882000000
C     4.050000000    -1.230000000    -6.140000000
H     3.977000000    -0.816000000    -7.142000000
C     5.260000000    -1.181000000    -5.404000000
H     6.081000000    -0.564000000    -5.760000000
C     5.228000000    -1.753000000    -4.131000000
H     6.092000000    -1.567000000    -3.499000000
C     4.077000000    -2.339000000    -3.560000000
O     4.139000000    -2.883000000    -2.298000000
C     4.511000000    -2.139000000    -1.295000000
C     5.239000000    -2.807000000    -0.290000000
H     5.483000000    -3.862000000    -0.387000000
C     5.620000000    -2.117000000     0.876000000
O     6.311000000    -2.815000000     1.823000000
C     6.015000000    -2.845000000     3.172000000
C     7.076000000    -2.837000000     4.066000000
H     8.058000000    -2.862000000     3.601000000
C     6.757000000    -2.944000000     5.463000000
H     7.561000000    -2.979000000     6.194000000
C     5.504000000    -3.164000000     5.932000000
H     5.378000000    -3.440000000     6.976000000
C     4.433000000    -3.222000000     5.020000000
C     4.658000000    -3.019000000     3.620000000
H     3.879000000    -3.084000000     2.865000000
C    -0.888000000    -1.636000000    -1.376000000
H    -1.621000000    -2.134000000    -2.006000000
C    -0.962000000    -0.309000000    -0.918000000
H    -1.607000000     0.341000000    -1.503000000
C    -0.092000000     0.174000000     0.068000000
H    -0.139000000     1.190000000     0.310000000
C     0.792000000    -0.696000000     0.730000000
H     1.372000000    -0.357000000     1.584000000
C     0.835000000    -2.041000000     0.333000000
H     1.562000000    -2.760000000     0.700000000
C     0.014000000    -2.513000000    -0.682000000
C     0.078000000    -3.934000000    -1.176000000
O     0.668000000    -4.715000000    -0.471000000
O    -0.641000000    -4.331000000    -2.106000000
O    -0.152000000    -7.250000000    -1.274000000
H     0.034000000    -6.341000000    -1.037000000
H     0.140000000    -7.325000000    -2.182000000
O    -1.416000000    -8.498000000     0.935000000
H    -0.775000000    -9.208000000     0.897000000
H    -1.306000000    -8.033000000     0.105000000
O     1.303000000    -5.679000000     2.030000000
H     1.074000000    -5.429000000     1.135000000
H     0.977000000    -4.959000000     2.570000000
O    -0.819000000    -5.903000000    -4.327000000
H    -1.624000000    -5.798000000    -4.833000000
H    -0.782000000    -5.125000000    -3.770000000
O     2.721000000    -5.760000000    -2.017000000
H     1.911000000    -5.447000000    -1.615000000
H     2.495000000    -5.897000000    -2.937000000
O     6.106000000    -6.595000000    -0.282000000
H     5.298000000    -6.131000000    -0.063000000
H     6.696000000    -6.407000000     0.448000000
O     4.486000000    -7.843000000    -2.782000000
H     5.380000000    -7.724000000    -2.462000000
H     3.994000000    -7.117000000    -2.398000000
O    -3.736000000    -6.086000000    -3.943000000
H    -3.719000000    -5.579000000    -3.131000000
H    -3.227000000    -6.872000000    -3.745000000
O     2.481000000    -5.831000000    -4.844000000
H     1.846000000    -5.757000000    -5.556000000
H     3.298000000    -5.499000000    -5.217000000
O     0.367000000    -5.804000000    -6.934000000
H    -0.174000000    -6.174000000    -7.632000000
H    -0.230000000    -5.715000000    -6.191000000
O     3.755000000    -5.508000000     0.364000000
H     3.157000000    -5.092000000     0.985000000
H     3.295000000    -5.468000000    -0.475000000
O    -2.559000000    -8.131000000    -2.991000000
H    -1.693000000    -8.083000000    -2.586000000
H    -2.933000000    -8.948000000    -2.661000000
O    -4.886000000    -6.847000000     1.524000000
H    -5.204000000    -6.988000000     2.415000000
H    -4.144000000    -6.251000000     1.626000000
O     1.780000000    -9.862000000    -1.787000000
H     1.721000000    -9.262000000    -2.531000000
H     1.629000000    -9.308000000    -1.021000000
O     2.934000000    -8.410000000     0.903000000
H     3.889000000    -8.370000000     0.954000000
H     2.643000000    -7.548000000     1.201000000
O    -2.161000000    -5.915000000     1.445000000
H    -1.657000000    -5.379000000     2.058000000
H    -1.707000000    -6.757000000     1.435000000
O     1.058000000    -8.030000000    -3.937000000
H     0.294000000    -7.464000000    -4.042000000
H     1.806000000    -7.455000000    -4.093000000
O     1.095000000    -8.275000000     3.567000000
H     0.713000000    -7.406000000     3.445000000
H     1.800000000    -8.320000000     2.920000000
O    -2.829000000    -5.468000000    -1.369000000
H    -2.078000000    -5.024000000    -1.762000000
H    -2.559000000    -5.644000000    -0.468000000
