215
-1450.51955
C     2.886000000    -2.521000000     3.867000000
H     3.663000000    -2.772000000     3.149000000
C     1.591000000    -2.887000000     3.554000000
C     0.548000000    -2.590000000     4.481000000
H    -0.452000000    -2.958000000     4.264000000
C     1.217000000    -3.524000000     2.133000000
O     2.442000000    -4.141000000     1.570000000
H     0.999000000    -2.556000000     1.657000000
O     0.086000000    -4.387000000     2.179000000
C    -0.848000000    -4.266000000     1.219000000
C    -2.001000000    -3.539000000     1.556000000
H    -2.143000000    -3.227000000     2.587000000
C    -3.013000000    -3.446000000     0.595000000
O    -4.018000000    -2.617000000     0.959000000
C    -2.855000000    -4.074000000    -0.700000000
C    -3.776000000    -3.792000000    -1.841000000
H    -3.657000000    -4.517000000    -2.649000000
C    -3.566000000    -2.452000000    -2.486000000
C    -2.745000000    -2.284000000    -3.573000000
H    -2.124000000    -3.133000000    -3.845000000
H    -4.794000000    -3.871000000    -1.452000000
C    -1.666000000    -4.736000000    -1.021000000
H    -1.476000000    -5.181000000    -1.994000000
C    -0.639000000    -4.798000000    -0.079000000
C     0.701000000    -5.427000000    -0.439000000
H     0.484000000    -6.054000000    -1.307000000
H     1.084000000    -6.107000000     0.324000000
C     1.788000000    -4.438000000    -0.773000000
C     1.955000000    -4.034000000    -2.122000000
H     1.340000000    -4.476000000    -2.901000000
C     2.669000000    -3.893000000     0.243000000
C     3.651000000    -3.028000000    -0.151000000
H     4.352000000    -2.587000000     0.554000000
C     3.735000000    -2.589000000    -1.477000000
O     4.512000000    -1.535000000    -1.746000000
C     3.890000000    -0.318000000    -1.892000000
C     4.634000000     0.846000000    -1.244000000
C     4.947000000     2.034000000    -1.854000000
H     4.675000000     2.252000000    -2.884000000
C     4.963000000     0.646000000     0.126000000
H     4.640000000    -0.277000000     0.601000000
O     3.817000000    -0.038000000    -3.285000000
H     2.831000000    -0.420000000    -1.613000000
C     2.977000000    -3.147000000    -2.442000000
C     3.059000000    -2.699000000    -3.897000000
H     2.740000000    -3.500000000    -4.567000000
H     4.099000000    -2.471000000    -4.140000000
C     2.159000000    -1.535000000    -4.207000000
C     0.843000000    -1.803000000    -4.716000000
H     0.519000000    -2.827000000    -4.883000000
C     2.585000000    -0.215000000    -3.986000000
C     1.669000000     0.881000000    -4.023000000
H     1.934000000     1.901000000    -3.758000000
C     0.372000000     0.583000000    -4.466000000
O    -0.568000000     1.665000000    -4.541000000
C    -1.628000000     1.813000000    -3.566000000
C    -1.565000000     3.199000000    -2.945000000
C    -0.331000000     3.873000000    -2.811000000
H     0.488000000     3.274000000    -3.203000000
C    -2.750000000     3.733000000    -2.429000000
H    -3.704000000     3.217000000    -2.500000000
O    -2.910000000     1.322000000    -3.997000000
H    -1.356000000     1.076000000    -2.795000000
C    -0.089000000    -0.703000000    -4.812000000
C    -1.522000000    -0.922000000    -5.251000000
H    -1.441000000    -1.861000000    -5.802000000
H    -1.832000000    -0.145000000    -5.953000000
C    -2.559000000    -1.046000000    -4.161000000
C    -3.273000000     0.061000000    -3.645000000
C    -4.100000000    -0.140000000    -2.595000000
H    -4.574000000     0.739000000    -2.165000000
C    -4.290000000    -1.351000000    -1.991000000
O    -4.876000000    -1.373000000    -0.756000000
C    -3.937000000    -1.265000000     0.357000000
H    -2.923000000    -1.024000000     0.005000000
C    -4.388000000    -0.227000000     1.380000000
C    -3.877000000    -0.242000000     2.704000000
H    -3.099000000    -0.943000000     2.995000000
C    -5.316000000     0.737000000     1.054000000
H    -5.760000000     0.771000000     0.063000000
C    -5.577000000     1.794000000     1.908000000
O    -6.531000000     2.725000000     1.594000000
C    -5.077000000     1.775000000     3.217000000
H    -5.400000000     2.621000000     3.818000000
C    -4.237000000     0.740000000     3.667000000
O    -3.730000000     0.743000000     4.943000000
C    -3.348000000    -0.334000000     5.686000000
C    -1.975000000    -0.680000000     5.657000000
H    -1.362000000    -0.139000000     4.941000000
C    -4.177000000    -1.047000000     6.512000000
H    -5.239000000    -0.866000000     6.370000000
C    -3.676000000    -1.932000000     7.510000000
H    -4.349000000    -2.413000000     8.215000000
C    -2.299000000    -2.209000000     7.476000000
H    -1.948000000    -3.013000000     8.118000000
C    -1.493000000    -1.667000000     6.511000000
O    -0.099000000    -1.893000000     6.670000000
C     0.819000000    -1.978000000     5.717000000
C     2.132000000    -1.588000000     6.046000000
H     2.418000000    -1.150000000     7.000000000
C     3.122000000    -1.899000000     5.109000000
O     4.378000000    -1.510000000     5.435000000
C     5.340000000    -1.200000000     4.474000000
C     5.128000000    -0.123000000     3.661000000
H     4.331000000     0.601000000     3.809000000
C     6.498000000    -2.027000000     4.285000000
H     6.578000000    -3.013000000     4.737000000
C     7.446000000    -1.649000000     3.309000000
H     8.303000000    -2.298000000     3.151000000
C     7.292000000    -0.550000000     2.526000000
H     8.065000000    -0.199000000     1.847000000
C     6.130000000     0.201000000     2.726000000
O     6.002000000     1.407000000     2.163000000
C     5.654000000     1.614000000     0.886000000
C     5.995000000     2.775000000     0.243000000
H     6.366000000     3.627000000     0.808000000
C     5.618000000     3.019000000    -1.077000000
O     5.695000000     4.334000000    -1.586000000
C     4.587000000     4.895000000    -2.190000000
C     3.311000000     4.815000000    -1.603000000
H     3.198000000     4.276000000    -0.665000000
C     4.729000000     5.475000000    -3.431000000
H     5.729000000     5.560000000    -3.849000000
C     3.678000000     6.038000000    -4.097000000
H     3.811000000     6.383000000    -5.120000000
C     2.423000000     6.055000000    -3.497000000
H     1.551000000     6.426000000    -4.030000000
C     2.207000000     5.485000000    -2.247000000
O     0.989000000     5.350000000    -1.677000000
C    -0.203000000     4.987000000    -2.104000000
C    -1.379000000     5.530000000    -1.526000000
H    -1.330000000     6.385000000    -0.857000000
C    -2.663000000     4.951000000    -1.726000000
O    -3.827000000     5.522000000    -1.238000000
C    -5.015000000     4.896000000    -0.982000000
C    -6.156000000     5.136000000    -1.737000000
H    -6.064000000     5.769000000    -2.616000000
C    -7.336000000     4.486000000    -1.555000000
H    -8.249000000     4.727000000    -2.093000000
C    -7.459000000     3.686000000    -0.400000000
H    -8.416000000     3.208000000    -0.207000000
C    -6.389000000     3.513000000     0.476000000
C    -5.170000000     4.144000000     0.187000000
H    -4.382000000     4.017000000     0.925000000
C     0.893000000     0.570000000     3.170000000
H     1.611000000     0.374000000     3.962000000
C     0.976000000    -0.104000000     1.947000000
H     1.797000000    -0.791000000     1.756000000
C     0.130000000     0.200000000     0.854000000
H     0.322000000    -0.306000000    -0.045000000
C    -0.826000000     1.149000000     1.094000000
H    -1.520000000     1.376000000     0.289000000
C    -0.960000000     1.831000000     2.299000000
H    -1.683000000     2.638000000     2.383000000
C    -0.187000000     1.464000000     3.383000000
C    -0.239000000     2.336000000     4.620000000
O    -0.838000000     3.387000000     4.531000000
O     0.484000000     2.150000000     5.581000000
O    -0.031000000     5.393000000     1.471000000
H     0.283000000     4.931000000     2.249000000
H     0.543000000     5.092000000     0.766000000
O     0.736000000     0.789000000     7.788000000
H     0.734000000     1.220000000     6.933000000
H    -0.151000000     0.921000000     8.124000000
O    -2.663000000     6.089000000     2.097000000
H    -2.390000000     6.037000000     3.013000000
H    -1.955000000     5.665000000     1.612000000
O     2.874000000     2.841000000     6.460000000
H     3.593000000     2.368000000     6.042000000
H     2.110000000     2.643000000     5.918000000
O     2.404000000     5.643000000     6.399000000
H     1.798000000     5.651000000     7.140000000
H     2.776000000     4.761000000     6.404000000
O     1.653000000     4.479000000     3.777000000
H     1.936000000     5.058000000     4.484000000
H     0.868000000     4.050000000     4.118000000
O     1.869000000     2.021000000     9.984000000
H     2.423000000     1.377000000    10.425000000
H     1.640000000     1.609000000     9.151000000
O     0.686000000     5.686000000     8.901000000
H     0.212000000     5.044000000     8.372000000
H     0.715000000     5.300000000     9.776000000
O    -3.023000000     3.151000000     6.118000000
H    -2.427000000     3.438000000     5.426000000
H    -2.466000000     2.670000000     6.730000000
O     4.038000000     4.212000000     2.198000000
H     3.302000000     4.431000000     2.770000000
H     3.876000000     3.306000000     1.935000000
O     5.176000000     1.249000000     6.251000000
H     6.058000000     0.893000000     6.147000000
H     4.693000000     0.561000000     6.710000000
O    -5.552000000     1.873000000     7.274000000
H    -4.864000000     1.751000000     6.621000000
H    -5.098000000     1.810000000     8.115000000
O    -0.587000000     3.731000000     7.630000000
H    -0.104000000     3.453000000     6.852000000
H    -0.700000000     2.930000000     8.141000000
O    -2.504000000     5.591000000     8.333000000
H    -2.216000000     5.574000000     9.246000000
H    -2.054000000     4.850000000     7.926000000
O    -4.175000000     6.025000000     6.053000000
H    -4.049000000     5.333000000     6.701000000
H    -5.121000000     6.042000000     5.902000000
O    -1.735000000     5.975000000     4.799000000
H    -1.476000000     5.068000000     4.636000000
H    -2.557000000     5.905000000     5.284000000
O    -0.561000000     8.424000000     4.748000000
H    -1.483000000     8.680000000     4.753000000
H    -0.573000000     7.484000000     4.929000000
O    -1.746000000     1.487000000     8.607000000
H    -2.063000000     1.621000000     9.500000000
H    -2.389000000     0.900000000     8.210000000
O     0.617000000    -1.278000000     9.825000000
H     0.775000000    -0.812000000     9.004000000
H     0.083000000    -0.675000000    10.343000000
