215
-1458.40790
C    -5.485000000     0.141000000    -1.035000000
H    -5.433000000     0.838000000    -1.867000000
C    -4.870000000     0.211000000     0.237000000
C    -4.980000000    -0.753000000     1.238000000
H    -4.417000000    -0.715000000     2.167000000
C    -4.022000000     1.464000000     0.586000000
O    -4.286000000     2.521000000    -0.353000000
H    -2.955000000     1.258000000     0.413000000
O    -4.221000000     2.005000000     1.947000000
C    -3.110000000     2.472000000     2.676000000
C    -2.587000000     1.584000000     3.604000000
H    -2.984000000     0.605000000     3.857000000
C    -1.297000000     1.910000000     4.155000000
O    -0.700000000     0.883000000     4.859000000
C    -0.626000000     3.114000000     3.868000000
C     0.733000000     3.493000000     4.428000000
H     0.694000000     4.567000000     4.621000000
C     1.894000000     2.988000000     3.535000000
C     2.510000000     3.759000000     2.506000000
H     2.080000000     4.734000000     2.292000000
H     0.870000000     3.119000000     5.445000000
C    -1.311000000     4.056000000     3.039000000
H    -0.777000000     4.935000000     2.686000000
C    -2.455000000     3.701000000     2.362000000
C    -3.033000000     4.551000000     1.185000000
H    -2.968000000     5.628000000     1.356000000
H    -4.118000000     4.517000000     1.306000000
C    -2.606000000     4.260000000    -0.217000000
C    -1.437000000     4.841000000    -0.729000000
H    -0.806000000     5.442000000    -0.080000000
C    -3.299000000     3.281000000    -0.971000000
C    -2.949000000     2.923000000    -2.258000000
H    -3.433000000     2.163000000    -2.867000000
C    -1.833000000     3.576000000    -2.683000000
O    -1.338000000     3.106000000    -3.902000000
C    -0.248000000     2.139000000    -3.820000000
C    -0.417000000     0.956000000    -4.772000000
C     0.627000000     0.478000000    -5.562000000
H     1.587000000     0.985000000    -5.617000000
C    -1.617000000     0.191000000    -4.662000000
H    -2.413000000     0.590000000    -4.038000000
O     1.042000000     2.747000000    -4.091000000
H    -0.261000000     1.675000000    -2.823000000
C    -1.072000000     4.521000000    -1.988000000
C     0.274000000     5.112000000    -2.537000000
H     0.421000000     6.128000000    -2.167000000
H     0.079000000     5.209000000    -3.607000000
C     1.482000000     4.265000000    -2.210000000
C     2.218000000     4.581000000    -1.099000000
H     1.978000000     5.427000000    -0.461000000
C     1.696000000     3.100000000    -2.992000000
C     2.797000000     2.342000000    -2.677000000
H     2.975000000     1.467000000    -3.297000000
C     3.456000000     2.548000000    -1.461000000
O     4.330000000     1.512000000    -1.082000000
C     4.001000000     0.589000000    -0.016000000
C     4.402000000    -0.877000000    -0.303000000
C     3.930000000    -1.441000000    -1.490000000
H     3.492000000    -0.896000000    -2.323000000
C     5.086000000    -1.591000000     0.660000000
H     5.420000000    -1.208000000     1.620000000
O     4.657000000     1.189000000     1.122000000
H     2.906000000     0.581000000     0.088000000
C     3.197000000     3.637000000    -0.713000000
C     4.081000000     3.895000000     0.504000000
H     3.985000000     4.970000000     0.670000000
H     5.106000000     3.641000000     0.224000000
C     3.534000000     3.157000000     1.749000000
C     3.949000000     1.846000000     2.001000000
C     3.465000000     1.130000000     3.097000000
H     3.762000000     0.087000000     3.180000000
C     2.372000000     1.724000000     3.811000000
O     1.711000000     0.902000000     4.689000000
C     0.491000000     0.275000000     4.229000000
H     0.314000000     0.439000000     3.155000000
C     0.529000000    -1.261000000     4.453000000
C    -0.644000000    -1.955000000     4.202000000
H    -1.489000000    -1.390000000     3.815000000
C     1.700000000    -1.938000000     4.809000000
H     2.676000000    -1.476000000     4.936000000
C     1.583000000    -3.356000000     4.746000000
O     2.665000000    -4.075000000     5.174000000
C     0.414000000    -4.082000000     4.410000000
H     0.280000000    -5.158000000     4.483000000
C    -0.741000000    -3.354000000     4.133000000
O    -1.950000000    -4.025000000     4.042000000
C    -3.137000000    -3.448000000     4.126000000
C    -3.846000000    -3.312000000     2.928000000
H    -3.395000000    -3.613000000     1.986000000
C    -3.692000000    -3.193000000     5.351000000
H    -3.117000000    -3.301000000     6.267000000
C    -4.938000000    -2.664000000     5.449000000
H    -5.310000000    -2.485000000     6.455000000
C    -5.787000000    -2.635000000     4.271000000
H    -6.810000000    -2.299000000     4.414000000
C    -5.227000000    -2.864000000     3.018000000
O    -6.011000000    -2.815000000     1.832000000
C    -5.821000000    -1.796000000     0.908000000
C    -6.536000000    -1.899000000    -0.316000000
H    -7.229000000    -2.712000000    -0.518000000
C    -6.261000000    -1.012000000    -1.303000000
O    -6.861000000    -1.262000000    -2.528000000
C    -6.159000000    -1.141000000    -3.714000000
C    -4.859000000    -1.645000000    -3.837000000
H    -4.344000000    -2.156000000    -3.027000000
C    -6.744000000    -0.485000000    -4.830000000
H    -7.765000000    -0.122000000    -4.747000000
C    -6.021000000    -0.309000000    -6.035000000
H    -6.418000000     0.316000000    -6.830000000
C    -4.646000000    -0.762000000    -6.126000000
H    -4.053000000    -0.667000000    -7.031000000
C    -4.106000000    -1.419000000    -5.021000000
O    -2.823000000    -1.884000000    -5.094000000
C    -1.708000000    -1.075000000    -5.302000000
C    -0.583000000    -1.634000000    -6.001000000
H    -0.605000000    -2.568000000    -6.556000000
C     0.570000000    -0.846000000    -6.103000000
O     1.694000000    -1.354000000    -6.739000000
C     2.885000000    -1.664000000    -6.107000000
C     2.713000000    -2.336000000    -4.852000000
H     1.793000000    -2.727000000    -4.425000000
C     4.152000000    -1.242000000    -6.544000000
H     4.166000000    -0.775000000    -7.526000000
C     5.257000000    -1.473000000    -5.776000000
H     6.217000000    -1.049000000    -6.058000000
C     5.134000000    -2.156000000    -4.602000000
H     6.040000000    -2.336000000    -4.031000000
C     3.900000000    -2.679000000    -4.196000000
O     3.793000000    -3.252000000    -2.955000000
C     4.277000000    -2.733000000    -1.748000000
C     4.789000000    -3.541000000    -0.761000000
H     4.849000000    -4.620000000    -0.878000000
C     5.230000000    -2.942000000     0.460000000
O     5.702000000    -3.833000000     1.382000000
C     5.452000000    -3.974000000     2.734000000
C     6.457000000    -4.580000000     3.454000000
H     7.407000000    -4.813000000     2.981000000
C     6.161000000    -4.966000000     4.775000000
H     6.869000000    -5.577000000     5.330000000
C     4.920000000    -4.632000000     5.403000000
H     4.581000000    -4.987000000     6.372000000
C     3.934000000    -4.076000000     4.667000000
C     4.215000000    -3.752000000     3.298000000
H     3.444000000    -3.347000000     2.648000000
C    -1.611000000    -1.734000000    -0.874000000
H    -2.515000000    -1.972000000    -1.429000000
C    -1.110000000    -0.440000000    -0.721000000
H    -1.673000000     0.395000000    -1.129000000
C    -0.046000000    -0.147000000     0.130000000
H     0.261000000     0.900000000     0.213000000
C     0.552000000    -1.172000000     0.883000000
H     1.259000000    -0.909000000     1.666000000
C     0.214000000    -2.510000000     0.653000000
H     0.726000000    -3.345000000     1.125000000
C    -0.895000000    -2.808000000    -0.281000000
C    -1.458000000    -4.147000000    -0.360000000
O    -0.971000000    -5.146000000     0.197000000
O    -2.249000000    -4.368000000    -1.231000000
O     0.019000000    -7.134000000    -1.471000000
H    -0.287000000    -6.586000000    -0.747000000
H    -0.268000000    -6.672000000    -2.258000000
O    -2.405000000    -9.194000000    -0.132000000
H    -2.292000000    -9.845000000     0.560000000
H    -1.672000000    -9.348000000    -0.728000000
O    -3.226000000    -6.841000000     3.637000000
H    -3.228000000    -5.925000000     3.914000000
H    -3.141000000    -6.803000000     2.684000000
O     0.166000000    -7.487000000     2.323000000
H    -0.604000000    -7.158000000     1.860000000
H    -0.183000000    -8.124000000     2.946000000
O    -0.896000000    -4.989000000    -3.345000000
H    -1.024000000    -4.175000000    -3.832000000
H    -1.506000000    -4.925000000    -2.610000000
O     2.517000000    -6.980000000    -2.732000000
H     2.748000000    -6.627000000    -1.873000000
H     1.641000000    -7.347000000    -2.612000000
O    -6.156000000    -7.796000000    -0.874000000
H    -5.416000000    -7.830000000    -1.481000000
H    -6.433000000    -8.708000000    -0.783000000
O    -4.762000000    -5.861000000    -3.936000000
H    -4.927000000    -5.215000000    -3.249000000
H    -4.408000000    -6.620000000    -3.473000000
O    -7.346000000    -5.467000000     2.738000000
H    -6.649000000    -5.372000000     2.089000000
H    -8.123000000    -5.688000000     2.225000000
O     1.662000000    -5.579000000     0.859000000
H     1.223000000    -6.206000000     1.433000000
H     0.968000000    -5.250000000     0.288000000
O    -3.711000000    -7.830000000    -2.244000000
H    -3.596000000    -8.635000000    -1.740000000
H    -2.884000000    -7.720000000    -2.713000000
O    -5.367000000    -5.783000000     0.583000000
H    -5.763000000    -6.549000000     0.168000000
H    -4.478000000    -6.062000000     0.802000000
O     1.066000000    -9.864000000    -2.102000000
H     0.674000000    -9.005000000    -2.264000000
H     1.778000000    -9.689000000    -1.487000000
O    -3.242000000    -7.364000000    -5.987000000
H    -3.473000000    -6.505000000    -5.633000000
H    -2.879000000    -7.840000000    -5.240000000
O     3.894000000    -7.200000000     1.125000000
H     3.174000000    -6.571000000     1.154000000
H     4.685000000    -6.661000000     1.149000000
O    -2.708000000    -6.785000000     1.001000000
H    -2.062000000    -6.173000000     0.648000000
H    -2.611000000    -7.572000000     0.465000000
O    -1.479000000    -7.475000000    -3.828000000
H    -0.802000000    -7.800000000    -4.421000000
H    -1.215000000    -6.576000000    -3.632000000
O     2.484000000    -9.099000000     2.792000000
H     1.683000000    -8.603000000     2.621000000
H     3.169000000    -8.612000000     2.335000000
O    -4.874000000    -4.300000000    -1.508000000
H    -3.921000000    -4.390000000    -1.526000000
H    -5.134000000    -4.679000000    -0.669000000
