215
-1441.73317
C     3.249000000    -2.027000000     3.994000000
H     4.022000000    -2.553000000     3.441000000
C     1.877000000    -2.111000000     3.620000000
C     0.978000000    -1.363000000     4.331000000
H     0.027000000    -1.243000000     3.819000000
C     1.491000000    -2.949000000     2.465000000
O     2.593000000    -3.767000000     2.014000000
H     1.060000000    -2.396000000     1.618000000
O     0.437000000    -3.833000000     2.843000000
C    -0.638000000    -4.037000000     1.950000000
C    -1.796000000    -3.318000000     2.248000000
H    -2.005000000    -2.806000000     3.183000000
C    -2.799000000    -3.355000000     1.282000000
O    -3.905000000    -2.693000000     1.610000000
C    -2.742000000    -4.034000000     0.066000000
C    -3.799000000    -4.011000000    -0.915000000
H    -3.727000000    -4.908000000    -1.533000000
C    -3.757000000    -2.746000000    -1.848000000
C    -2.969000000    -2.689000000    -3.008000000
H    -2.415000000    -3.599000000    -3.223000000
H    -4.758000000    -4.093000000    -0.399000000
C    -1.458000000    -4.675000000    -0.224000000
H    -1.309000000    -5.110000000    -1.209000000
C    -0.424000000    -4.669000000     0.735000000
C     0.897000000    -5.377000000     0.431000000
H     0.712000000    -6.145000000    -0.322000000
H     1.203000000    -5.859000000     1.362000000
C     1.913000000    -4.391000000    -0.152000000
C     1.857000000    -4.147000000    -1.522000000
H     1.276000000    -4.808000000    -2.160000000
C     2.743000000    -3.683000000     0.670000000
C     3.617000000    -2.750000000     0.127000000
H     4.301000000    -2.192000000     0.762000000
C     3.626000000    -2.559000000    -1.236000000
O     4.357000000    -1.544000000    -1.732000000
C     3.683000000    -0.361000000    -2.084000000
C     4.441000000     0.849000000    -1.547000000
C     4.320000000     2.070000000    -2.242000000
H     3.884000000     2.169000000    -3.233000000
C     4.938000000     0.887000000    -0.224000000
H     4.957000000    -0.075000000     0.282000000
O     3.507000000    -0.309000000    -3.535000000
H     2.718000000    -0.364000000    -1.557000000
C     2.716000000    -3.195000000    -2.092000000
C     2.668000000    -3.131000000    -3.626000000
H     2.518000000    -4.119000000    -4.066000000
H     3.663000000    -2.887000000    -4.004000000
C     1.767000000    -1.982000000    -3.982000000
C     0.461000000    -2.310000000    -4.334000000
H     0.116000000    -3.339000000    -4.400000000
C     2.249000000    -0.660000000    -4.043000000
C     1.321000000     0.331000000    -4.364000000
H     1.624000000     1.374000000    -4.343000000
C    -0.031000000    -0.034000000    -4.626000000
O    -0.825000000     1.059000000    -4.785000000
C    -1.711000000     1.388000000    -3.693000000
C    -1.735000000     2.837000000    -3.283000000
C    -0.730000000     3.657000000    -3.732000000
H     0.030000000     3.277000000    -4.410000000
C    -2.791000000     3.405000000    -2.504000000
H    -3.570000000     2.720000000    -2.178000000
O    -3.083000000     0.907000000    -3.924000000
H    -1.296000000     0.907000000    -2.795000000
C    -0.456000000    -1.331000000    -4.509000000
C    -1.891000000    -1.643000000    -4.900000000
H    -2.007000000    -2.589000000    -5.434000000
H    -2.263000000    -0.893000000    -5.601000000
C    -2.789000000    -1.545000000    -3.708000000
C    -3.413000000    -0.332000000    -3.299000000
C    -4.078000000    -0.386000000    -2.067000000
H    -4.379000000     0.578000000    -1.666000000
C    -4.331000000    -1.581000000    -1.394000000
O    -4.858000000    -1.515000000    -0.135000000
C    -3.965000000    -1.384000000     1.000000000
H    -3.019000000    -0.907000000     0.706000000
C    -4.547000000    -0.465000000     2.061000000
C    -4.401000000    -0.706000000     3.463000000
H    -3.848000000    -1.583000000     3.790000000
C    -5.231000000     0.665000000     1.676000000
H    -5.444000000     0.893000000     0.635000000
C    -5.610000000     1.643000000     2.570000000
O    -6.287000000     2.765000000     2.081000000
C    -5.331000000     1.451000000     3.901000000
H    -5.711000000     2.230000000     4.557000000
C    -4.678000000     0.329000000     4.333000000
O    -4.348000000     0.207000000     5.706000000
C    -3.263000000    -0.474000000     6.109000000
C    -2.030000000     0.176000000     6.000000000
H    -2.017000000     1.095000000     5.420000000
C    -3.314000000    -1.770000000     6.551000000
H    -4.270000000    -2.220000000     6.809000000
C    -2.169000000    -2.480000000     7.026000000
H    -2.254000000    -3.437000000     7.535000000
C    -0.925000000    -1.776000000     6.901000000
H    -0.090000000    -2.375000000     7.255000000
C    -0.825000000    -0.441000000     6.376000000
O     0.424000000     0.175000000     6.134000000
C     1.337000000    -0.546000000     5.410000000
C     2.732000000    -0.311000000     5.618000000
H     3.016000000     0.419000000     6.372000000
C     3.673000000    -1.116000000     4.974000000
O     4.967000000    -0.895000000     5.176000000
C     5.745000000    -0.415000000     4.150000000
C     5.495000000     0.648000000     3.275000000
H     4.553000000     1.188000000     3.341000000
C     6.938000000    -1.128000000     3.993000000
H     7.161000000    -2.018000000     4.577000000
C     7.835000000    -0.793000000     2.983000000
H     8.677000000    -1.477000000     2.909000000
C     7.610000000     0.327000000     2.168000000
H     8.337000000     0.528000000     1.385000000
C     6.471000000     1.020000000     2.295000000
O     6.266000000     2.070000000     1.485000000
C     5.477000000     2.007000000     0.398000000
C     5.269000000     3.194000000    -0.251000000
H     5.741000000     4.083000000     0.161000000
C     4.699000000     3.256000000    -1.544000000
O     4.490000000     4.443000000    -2.130000000
C     3.656000000     4.672000000    -3.165000000
C     2.346000000     5.097000000    -2.942000000
H     1.896000000     5.136000000    -1.953000000
C     4.265000000     4.770000000    -4.418000000
H     5.301000000     4.504000000    -4.614000000
C     3.531000000     5.173000000    -5.536000000
H     3.978000000     5.321000000    -6.516000000
C     2.121000000     5.476000000    -5.351000000
H     1.452000000     5.748000000    -6.163000000
C     1.541000000     5.397000000    -4.050000000
O     0.282000000     5.720000000    -3.888000000
C    -0.700000000     4.917000000    -3.261000000
C    -1.652000000     5.451000000    -2.437000000
H    -1.559000000     6.469000000    -2.065000000
C    -2.732000000     4.713000000    -2.094000000
O    -3.736000000     5.262000000    -1.261000000
C    -4.883000000     4.517000000    -0.875000000
C    -5.965000000     4.549000000    -1.742000000
H    -5.834000000     4.869000000    -2.772000000
C    -7.152000000     3.895000000    -1.370000000
H    -7.948000000     3.736000000    -2.094000000
C    -7.271000000     3.272000000    -0.119000000
H    -8.118000000     2.636000000     0.125000000
C    -6.143000000     3.313000000     0.777000000
C    -4.965000000     3.917000000     0.337000000
H    -4.115000000     3.956000000     1.014000000
C     1.040000000     1.124000000     2.143000000
H     1.922000000     1.122000000     2.779000000
C     0.883000000     0.174000000     1.170000000
H     1.662000000    -0.566000000     1.005000000
C    -0.193000000     0.056000000     0.387000000
H    -0.243000000    -0.636000000    -0.419000000
C    -1.296000000     0.908000000     0.582000000
H    -2.146000000     0.771000000    -0.082000000
C    -1.204000000     1.822000000     1.659000000
H    -2.075000000     2.416000000     1.925000000
C    -0.021000000     2.010000000     2.451000000
C     0.046000000     3.022000000     3.583000000
O    -0.836000000     3.788000000     3.878000000
O     1.130000000     3.239000000     4.089000000
O     0.093000000     5.520000000     0.574000000
H     0.389000000     4.634000000     0.367000000
H     0.310000000     5.635000000     1.500000000
O     1.218000000     2.681000000     6.903000000
H     1.022000000     3.111000000     6.071000000
H     0.959000000     1.769000000     6.768000000
O    -2.361000000     6.261000000     1.759000000
H    -2.591000000     6.076000000     2.669000000
H    -1.623000000     5.680000000     1.575000000
O    -3.602000000     8.224000000     4.304000000
H    -2.855000000     7.625000000     4.300000000
H    -3.934000000     8.187000000     5.201000000
O     3.410000000     3.662000000     5.208000000
H     3.426000000     3.615000000     6.164000000
H     2.479000000     3.668000000     4.985000000
O    -0.338000000     6.413000000     8.090000000
H    -1.148000000     6.007000000     7.781000000
H    -0.595000000     6.890000000     8.879000000
O     3.487000000     3.564000000     2.439000000
H     3.264000000     3.393000000     3.354000000
H     3.001000000     4.358000000     2.218000000
O     3.229000000     6.221000000    -0.049000000
H     3.669000000     5.448000000    -0.401000000
H     3.529000000     6.274000000     0.859000000
O     1.144000000     4.174000000     9.379000000
H     1.111000000     5.080000000     9.073000000
H     1.126000000     3.650000000     8.578000000
O     1.760000000     6.987000000     6.414000000
H     1.173000000     7.330000000     5.741000000
H     1.178000000     6.713000000     7.123000000
O    -3.041000000     3.763000000     5.909000000
H    -2.436000000     3.420000000     5.251000000
H    -2.862000000     3.244000000     6.693000000
O     5.794000000     4.292000000     4.088000000
H     5.874000000     3.490000000     3.572000000
H     5.091000000     4.106000000     4.711000000
O     1.155000000     3.220000000    -0.126000000
H     1.864000000     3.147000000     0.513000000
H     0.680000000     2.392000000    -0.051000000
O     3.851000000     2.810000000     8.263000000
H     2.924000000     2.572000000     8.241000000
H     4.000000000     3.109000000     9.160000000
O     1.508000000     5.655000000     3.138000000
H     1.677000000     6.308000000     3.816000000
H     1.499000000     4.820000000     3.606000000
O    -5.414000000     5.288000000     6.555000000
H    -4.612000000     4.899000000     6.206000000
H    -5.747000000     5.831000000     5.841000000
O    -1.902000000     6.104000000     4.569000000
H    -1.510000000     5.294000000     4.241000000
H    -1.842000000     6.031000000     5.521000000
O     0.498000000     8.217000000     4.120000000
H    -0.159000000     7.634000000     3.739000000
H     0.528000000     8.966000000     3.525000000
O     4.549000000     6.326000000     2.433000000
H     4.962000000     5.703000000     3.030000000
H     4.307000000     7.067000000     2.989000000
