215
-1451.82306
C     3.056000000    -3.343000000     3.093000000
H     3.596000000    -3.847000000     2.295000000
C     1.710000000    -3.235000000     2.971000000
C     1.039000000    -2.477000000     3.960000000
H    -0.042000000    -2.365000000     3.955000000
C     0.911000000    -3.788000000     1.767000000
O     1.737000000    -4.856000000     1.112000000
H     0.793000000    -2.942000000     1.074000000
O    -0.331000000    -4.347000000     2.087000000
C    -1.401000000    -4.077000000     1.292000000
C    -2.346000000    -3.281000000     1.800000000
H    -2.200000000    -2.930000000     2.819000000
C    -3.384000000    -2.839000000     0.960000000
O    -4.216000000    -1.914000000     1.438000000
C    -3.563000000    -3.388000000    -0.310000000
C    -4.605000000    -2.880000000    -1.252000000
H    -4.807000000    -3.716000000    -1.925000000
C    -4.252000000    -1.562000000    -1.902000000
C    -3.582000000    -1.551000000    -3.169000000
H    -3.322000000    -2.484000000    -3.662000000
H    -5.567000000    -2.784000000    -0.745000000
C    -2.569000000    -4.238000000    -0.813000000
H    -2.720000000    -4.693000000    -1.789000000
C    -1.473000000    -4.553000000    -0.023000000
C    -0.454000000    -5.498000000    -0.550000000
H    -0.885000000    -6.001000000    -1.418000000
H    -0.181000000    -6.283000000     0.159000000
C     0.823000000    -4.886000000    -1.123000000
C     0.889000000    -4.342000000    -2.371000000
H     0.080000000    -4.531000000    -3.072000000
C     1.897000000    -4.598000000    -0.231000000
C     2.988000000    -3.835000000    -0.616000000
H     3.622000000    -3.447000000     0.176000000
C     2.932000000    -3.309000000    -1.883000000
O     3.765000000    -2.267000000    -2.207000000
C     3.238000000    -0.880000000    -2.184000000
C     4.109000000     0.088000000    -1.405000000
C     3.878000000     1.422000000    -1.463000000
H     3.051000000     1.764000000    -2.079000000
C     5.065000000    -0.357000000    -0.521000000
H     5.164000000    -1.427000000    -0.355000000
O     3.111000000    -0.419000000    -3.520000000
H     2.249000000    -0.937000000    -1.706000000
C     1.936000000    -3.602000000    -2.806000000
C     1.978000000    -2.905000000    -4.215000000
H     1.476000000    -3.599000000    -4.893000000
H     2.975000000    -2.798000000    -4.646000000
C     1.158000000    -1.634000000    -4.219000000
C    -0.174000000    -1.612000000    -4.574000000
H    -0.748000000    -2.498000000    -4.834000000
C     1.812000000    -0.413000000    -3.968000000
C     1.146000000     0.799000000    -3.982000000
H     1.624000000     1.765000000    -3.838000000
C    -0.193000000     0.809000000    -4.358000000
O    -0.839000000     1.969000000    -4.334000000
C    -1.614000000     2.398000000    -3.135000000
C    -1.274000000     3.813000000    -2.665000000
C    -0.179000000     4.555000000    -3.173000000
H     0.490000000     4.075000000    -3.883000000
C    -2.133000000     4.417000000    -1.726000000
H    -3.015000000     3.911000000    -1.343000000
O    -3.021000000     2.156000000    -3.403000000
H    -1.344000000     1.641000000    -2.385000000
C    -0.861000000    -0.387000000    -4.583000000
C    -2.348000000    -0.281000000    -4.949000000
H    -2.630000000    -1.179000000    -5.502000000
H    -2.519000000     0.586000000    -5.589000000
C    -3.185000000    -0.327000000    -3.684000000
C    -3.498000000     0.885000000    -3.033000000
C    -4.419000000     0.868000000    -1.965000000
H    -4.795000000     1.794000000    -1.539000000
C    -4.682000000    -0.328000000    -1.308000000
O    -5.197000000    -0.317000000    -0.071000000
C    -4.186000000    -0.537000000     0.958000000
H    -3.248000000    -0.377000000     0.405000000
C    -4.201000000     0.422000000     2.147000000
C    -3.872000000     0.032000000     3.434000000
H    -3.404000000    -0.941000000     3.553000000
C    -4.501000000     1.778000000     1.943000000
H    -4.852000000     2.109000000     0.969000000
C    -4.565000000     2.715000000     2.985000000
O    -5.222000000     3.912000000     2.879000000
C    -4.221000000     2.358000000     4.291000000
H    -4.383000000     3.075000000     5.092000000
C    -3.763000000     1.056000000     4.486000000
O    -3.427000000     0.673000000     5.781000000
C    -2.551000000    -0.371000000     6.038000000
C    -1.173000000    -0.269000000     5.824000000
H    -0.826000000     0.651000000     5.360000000
C    -3.040000000    -1.506000000     6.739000000
H    -4.112000000    -1.597000000     6.897000000
C    -2.195000000    -2.558000000     7.134000000
H    -2.522000000    -3.459000000     7.646000000
C    -0.833000000    -2.378000000     6.877000000
H    -0.180000000    -3.089000000     7.376000000
C    -0.313000000    -1.298000000     6.180000000
O     1.082000000    -1.211000000     6.093000000
C     1.733000000    -1.866000000     5.042000000
C     3.103000000    -2.149000000     5.160000000
H     3.503000000    -1.770000000     6.097000000
C     3.765000000    -2.817000000     4.204000000
O     5.172000000    -3.006000000     4.350000000
C     5.844000000    -2.832000000     3.160000000
C     5.886000000    -1.521000000     2.664000000
H     5.363000000    -0.768000000     3.248000000
C     6.557000000    -3.882000000     2.571000000
H     6.503000000    -4.899000000     2.951000000
C     7.336000000    -3.586000000     1.476000000
H     7.967000000    -4.316000000     0.975000000
C     7.500000000    -2.273000000     1.030000000
H     8.143000000    -2.045000000     0.183000000
C     6.741000000    -1.240000000     1.610000000
O     6.809000000     0.041000000     1.106000000
C     5.836000000     0.531000000     0.222000000
C     5.771000000     1.921000000    -0.091000000
H     6.454000000     2.621000000     0.384000000
C     4.776000000     2.319000000    -0.909000000
O     4.599000000     3.657000000    -1.075000000
C     4.062000000     4.259000000    -2.128000000
C     2.918000000     5.031000000    -1.969000000
H     2.443000000     5.259000000    -1.018000000
C     4.717000000     4.172000000    -3.380000000
H     5.504000000     3.434000000    -3.509000000
C     4.114000000     4.727000000    -4.511000000
H     4.604000000     4.483000000    -5.450000000
C     2.935000000     5.475000000    -4.371000000
H     2.316000000     5.802000000    -5.203000000
C     2.373000000     5.623000000    -3.099000000
O     1.276000000     6.408000000    -2.955000000
C     0.055000000     5.889000000    -2.660000000
C    -0.797000000     6.447000000    -1.735000000
H    -0.688000000     7.424000000    -1.271000000
C    -1.909000000     5.741000000    -1.320000000
O    -2.767000000     6.390000000    -0.474000000
C    -3.938000000     5.832000000     0.011000000
C    -5.123000000     6.281000000    -0.463000000
H    -5.178000000     7.068000000    -1.211000000
C    -6.355000000     5.842000000     0.061000000
H    -7.301000000     6.227000000    -0.310000000
C    -6.377000000     5.104000000     1.229000000
H    -7.269000000     4.759000000     1.746000000
C    -5.161000000     4.689000000     1.739000000
C    -3.926000000     4.959000000     1.145000000
H    -3.040000000     4.576000000     1.644000000
C     1.430000000     0.572000000     2.321000000
H     2.327000000     0.511000000     2.931000000
C     1.223000000    -0.072000000     1.065000000
H     1.920000000    -0.821000000     0.699000000
C     0.023000000     0.182000000     0.392000000
H    -0.079000000    -0.274000000    -0.649000000
C    -0.955000000     1.084000000     0.869000000
H    -1.839000000     1.376000000     0.307000000
C    -0.770000000     1.750000000     2.084000000
H    -1.486000000     2.470000000     2.473000000
C     0.444000000     1.529000000     2.779000000
C     0.784000000     2.346000000     4.021000000
O     0.078000000     3.280000000     4.223000000
O     1.806000000     2.317000000     4.647000000
O     0.422000000     3.500000000     0.104000000
H     0.186000000     2.695000000     0.565000000
H     0.161000000     3.342000000    -0.803000000
O     2.113000000     0.198000000     8.368000000
H     1.536000000    -0.512000000     8.650000000
H     1.522000000     0.849000000     7.988000000
O    -1.564000000     3.181000000     8.252000000
H    -1.915000000     3.585000000     9.046000000
H    -1.957000000     2.308000000     8.234000000
O     1.002000000     2.383000000     7.276000000
H     1.239000000     2.631000000     6.383000000
H     0.070000000     2.593000000     7.343000000
O     5.274000000     2.657000000     7.151000000
H     4.771000000     1.929000000     6.785000000
H     5.816000000     2.963000000     6.424000000
O     3.148000000     8.301000000     5.072000000
H     3.157000000     8.903000000     5.816000000
H     2.692000000     7.524000000     5.397000000
O     0.057000000     5.130000000     2.325000000
H     0.026000000     4.639000000     1.504000000
H     0.149000000     4.459000000     3.001000000
O     6.612000000     2.914000000     4.722000000
H     5.769000000     3.027000000     4.282000000
H     7.053000000     2.228000000     4.220000000
O     5.647000000     6.360000000     2.643000000
H     4.745000000     6.082000000     2.801000000
H     5.691000000     7.245000000     3.006000000
O     2.804000000     6.120000000     3.061000000
H     2.762000000     5.669000000     3.904000000
H     2.606000000     5.442000000     2.415000000
O    -4.414000000     6.382000000     5.074000000
H    -4.049000000     5.759000000     5.701000000
H    -4.789000000     5.836000000     4.383000000
O    -1.316000000     7.081000000     3.506000000
H    -0.693000000     6.701000000     2.885000000
H    -1.481000000     6.381000000     4.137000000
O     4.111000000     2.942000000     3.536000000
H     3.406000000     2.611000000     4.092000000
H     3.670000000     3.244000000     2.742000000
O     2.938000000     4.076000000     1.284000000
H     2.103000000     3.847000000     0.877000000
H     3.563000000     4.086000000     0.559000000
O    -1.464000000     4.885000000     5.626000000
H    -1.554000000     4.340000000     6.408000000
H    -0.866000000     4.396000000     5.061000000
O     1.452000000     3.084000000    10.083000000
H     1.389000000     3.057000000     9.128000000
H     0.680000000     2.606000000    10.388000000
O     3.726000000     0.644000000     5.865000000
H     3.080000000     1.094000000     5.322000000
H     3.300000000     0.553000000     6.718000000
O     2.555000000     5.004000000     5.389000000
H     2.751000000     4.885000000     6.318000000
H     2.280000000     4.137000000     5.089000000
O     2.547000000     6.027000000     8.126000000
H     1.623000000     6.257000000     8.022000000
H     2.657000000     5.900000000     9.069000000
