215
-1448.83102
C     2.926000000    -3.007000000     3.617000000
H     3.557000000    -3.581000000     2.944000000
C     1.523000000    -2.959000000     3.468000000
C     0.747000000    -2.207000000     4.353000000
H    -0.327000000    -2.141000000     4.196000000
C     0.860000000    -3.587000000     2.258000000
O     1.742000000    -4.458000000     1.613000000
H     0.548000000    -2.809000000     1.546000000
O    -0.323000000    -4.361000000     2.570000000
C    -1.382000000    -4.116000000     1.834000000
C    -2.405000000    -3.322000000     2.309000000
H    -2.400000000    -2.684000000     3.189000000
C    -3.474000000    -2.913000000     1.456000000
O    -4.285000000    -1.885000000     1.925000000
C    -3.521000000    -3.404000000     0.128000000
C    -4.631000000    -3.091000000    -0.813000000
H    -4.781000000    -3.891000000    -1.540000000
C    -4.369000000    -1.874000000    -1.620000000
C    -3.691000000    -1.996000000    -2.838000000
H    -3.525000000    -2.964000000    -3.303000000
H    -5.543000000    -2.921000000    -0.237000000
C    -2.460000000    -4.267000000    -0.350000000
H    -2.410000000    -4.609000000    -1.380000000
C    -1.442000000    -4.597000000     0.502000000
C    -0.373000000    -5.593000000    -0.013000000
H    -0.828000000    -6.212000000    -0.789000000
H    -0.052000000    -6.265000000     0.786000000
C     0.891000000    -4.890000000    -0.552000000
C     0.880000000    -4.743000000    -1.917000000
H     0.040000000    -5.051000000    -2.535000000
C     1.897000000    -4.402000000     0.277000000
C     2.940000000    -3.643000000    -0.292000000
H     3.764000000    -3.175000000     0.241000000
C     2.873000000    -3.424000000    -1.602000000
O     3.779000000    -2.467000000    -2.133000000
C     3.278000000    -1.140000000    -2.324000000
C     4.160000000    -0.058000000    -1.825000000
C     4.182000000     1.274000000    -2.344000000
H     3.577000000     1.473000000    -3.225000000
C     5.016000000    -0.335000000    -0.752000000
H     5.034000000    -1.324000000    -0.302000000
O     3.076000000    -0.936000000    -3.769000000
H     2.306000000    -1.001000000    -1.826000000
C     1.911000000    -3.989000000    -2.463000000
C     1.765000000    -3.660000000    -3.990000000
H     1.227000000    -4.430000000    -4.546000000
H     2.746000000    -3.717000000    -4.466000000
C     1.045000000    -2.314000000    -4.256000000
C    -0.378000000    -2.338000000    -4.471000000
H    -0.927000000    -3.269000000    -4.351000000
C     1.784000000    -1.094000000    -4.195000000
C     1.110000000     0.147000000    -4.417000000
H     1.681000000     1.068000000    -4.326000000
C    -0.296000000     0.136000000    -4.646000000
O    -0.990000000     1.379000000    -4.608000000
C    -1.660000000     1.831000000    -3.403000000
C    -1.300000000     3.271000000    -3.075000000
C    -0.272000000     3.931000000    -3.695000000
H     0.304000000     3.412000000    -4.457000000
C    -2.036000000     3.951000000    -2.086000000
H    -2.895000000     3.519000000    -1.579000000
O    -3.045000000     1.539000000    -3.397000000
H    -1.246000000     1.225000000    -2.584000000
C    -1.059000000    -1.113000000    -4.649000000
C    -2.564000000    -1.006000000    -4.850000000
H    -2.983000000    -1.889000000    -5.337000000
H    -2.856000000    -0.114000000    -5.408000000
C    -3.308000000    -0.882000000    -3.526000000
C    -3.547000000     0.365000000    -2.952000000
C    -4.204000000     0.505000000    -1.713000000
H    -4.395000000     1.549000000    -1.477000000
C    -4.665000000    -0.584000000    -1.060000000
O    -5.114000000    -0.394000000     0.257000000
C    -4.132000000    -0.564000000     1.290000000
H    -3.075000000    -0.503000000     0.991000000
C    -4.367000000     0.547000000     2.293000000
C    -3.874000000     0.372000000     3.570000000
H    -3.279000000    -0.502000000     3.822000000
C    -4.728000000     1.789000000     1.820000000
H    -4.960000000     1.887000000     0.763000000
C    -4.869000000     2.837000000     2.729000000
O    -5.378000000     4.031000000     2.380000000
C    -4.595000000     2.620000000     4.089000000
H    -4.711000000     3.487000000     4.734000000
C    -3.970000000     1.457000000     4.478000000
O    -3.518000000     1.399000000     5.808000000
C    -2.806000000     0.284000000     6.302000000
C    -1.486000000     0.367000000     6.069000000
H    -1.152000000     1.222000000     5.487000000
C    -3.416000000    -0.756000000     7.000000000
H    -4.456000000    -0.674000000     7.305000000
C    -2.641000000    -1.800000000     7.474000000
H    -3.032000000    -2.647000000     8.032000000
C    -1.266000000    -1.725000000     7.198000000
H    -0.579000000    -2.463000000     7.605000000
C    -0.724000000    -0.751000000     6.520000000
O     0.640000000    -0.849000000     6.364000000
C     1.365000000    -1.568000000     5.393000000
C     2.749000000    -1.546000000     5.511000000
H     3.191000000    -0.966000000     6.318000000
C     3.534000000    -2.198000000     4.576000000
O     4.867000000    -2.171000000     4.686000000
C     5.783000000    -2.048000000     3.584000000
C     5.649000000    -1.006000000     2.687000000
H     4.771000000    -0.365000000     2.687000000
C     6.900000000    -2.884000000     3.570000000
H     7.053000000    -3.650000000     4.326000000
C     7.859000000    -2.801000000     2.565000000
H     8.736000000    -3.443000000     2.558000000
C     7.698000000    -1.766000000     1.618000000
H     8.391000000    -1.724000000     0.782000000
C     6.635000000    -0.805000000     1.703000000
O     6.590000000     0.298000000     0.888000000
C     5.769000000     0.631000000    -0.170000000
C     5.709000000     1.924000000    -0.580000000
H     6.241000000     2.662000000     0.015000000
C     4.962000000     2.269000000    -1.691000000
O     4.754000000     3.619000000    -1.940000000
C     4.179000000     4.134000000    -3.119000000
C     2.901000000     4.577000000    -3.055000000
H     2.291000000     4.287000000    -2.203000000
C     5.023000000     4.555000000    -4.132000000
H     6.084000000     4.326000000    -4.078000000
C     4.555000000     5.411000000    -5.128000000
H     5.244000000     5.766000000    -5.890000000
C     3.236000000     5.755000000    -5.149000000
H     2.827000000     6.434000000    -5.893000000
C     2.404000000     5.369000000    -4.134000000
O     1.123000000     5.827000000    -4.172000000
C     0.113000000     5.217000000    -3.397000000
C    -0.577000000     5.918000000    -2.465000000
H    -0.209000000     6.894000000    -2.160000000
C    -1.615000000     5.293000000    -1.724000000
O    -2.191000000     6.044000000    -0.673000000
C    -3.455000000     5.769000000    -0.298000000
C    -4.493000000     6.138000000    -1.128000000
H    -4.273000000     6.579000000    -2.097000000
C    -5.814000000     5.832000000    -0.758000000
H    -6.522000000     6.327000000    -1.419000000
C    -6.159000000     5.142000000     0.454000000
H    -7.190000000     5.152000000     0.798000000
C    -5.052000000     4.779000000     1.249000000
C    -3.697000000     4.918000000     0.819000000
H    -2.818000000     4.595000000     1.371000000
C     1.418000000     1.141000000     2.428000000
H     2.356000000     1.274000000     2.960000000
C     1.252000000     0.300000000     1.288000000
H     2.100000000    -0.309000000     0.987000000
C     0.049000000     0.269000000     0.582000000
H    -0.101000000    -0.458000000    -0.194000000
C    -0.967000000     1.093000000     1.010000000
H    -1.905000000     1.075000000     0.462000000
C    -0.847000000     1.835000000     2.219000000
H    -1.644000000     2.452000000     2.626000000
C     0.352000000     1.941000000     2.874000000
C     0.556000000     2.790000000     4.109000000
O    -0.193000000     3.694000000     4.397000000
O     1.526000000     2.566000000     4.824000000
O     0.687000000     3.916000000     0.440000000
H     0.349000000     3.102000000     0.813000000
H     0.664000000     3.774000000    -0.507000000
O     1.746000000    -0.094000000     8.940000000
H     1.058000000    -0.574000000     9.401000000
H     1.275000000     0.554000000     8.415000000
O     2.420000000     7.384000000     6.679000000
H     1.624000000     7.797000000     6.345000000
H     2.448000000     6.532000000     6.245000000
O    -1.587000000     3.498000000     8.813000000
H    -2.451000000     3.781000000     9.111000000
H    -1.483000000     2.619000000     9.178000000
O     0.629000000     2.077000000     7.646000000
H     0.555000000     2.080000000     6.692000000
H     0.043000000     2.778000000     7.934000000
O     3.624000000     2.112000000     7.647000000
H     2.720000000     1.895000000     7.420000000
H     3.773000000     1.672000000     8.484000000
O     2.558000000     5.202000000     9.857000000
H     3.199000000     4.491000000     9.871000000
H     1.855000000     4.879000000     9.293000000
O     0.649000000     5.571000000     2.736000000
H     0.842000000     4.963000000     2.023000000
H     0.084000000     5.075000000     3.328000000
O     6.554000000     4.174000000     4.939000000
H     5.641000000     3.980000000     4.728000000
H     7.054000000     3.493000000     4.490000000
O     4.393000000     7.078000000     1.151000000
H     3.973000000     7.681000000     0.537000000
H     3.781000000     7.019000000     1.884000000
O     3.121000000     6.348000000     3.372000000
H     2.170000000     6.244000000     3.399000000
H     3.434000000     5.889000000     4.152000000
O    -2.802000000     5.877000000     4.073000000
H    -1.886000000     6.079000000     3.886000000
H    -2.804000000     5.602000000     4.990000000
O     4.138000000     3.414000000     3.818000000
H     3.355000000     3.146000000     4.299000000
H     3.811000000     3.685000000     2.961000000
O     3.546000000     3.228000000     1.160000000
H     2.661000000     3.585000000     1.080000000
H     4.084000000     3.792000000     0.605000000
O    -1.656000000     7.398000000     7.825000000
H    -1.905000000     7.001000000     8.659000000
H    -1.546000000     6.656000000     7.230000000
O    -1.421000000     5.020000000     6.520000000
H    -1.514000000     4.303000000     7.147000000
H    -0.936000000     4.637000000     5.789000000
O     0.663000000     7.471000000     0.469000000
H     0.224000000     6.731000000     0.889000000
H     1.472000000     7.584000000     0.968000000
O     5.492000000     1.337000000     5.289000000
H     4.880000000     1.847000000     4.758000000
H     4.999000000     1.118000000     6.079000000
O     2.869000000     4.649000000     6.341000000
H     3.231000000     4.068000000     7.010000000
H     2.309000000     4.083000000     5.810000000
