215
-1458.16219
C    -5.756000000     0.812000000    -0.728000000
H    -5.618000000     1.553000000    -1.512000000
C    -5.030000000     0.700000000     0.500000000
C    -5.176000000    -0.393000000     1.375000000
H    -4.600000000    -0.414000000     2.297000000
C    -3.932000000     1.736000000     0.767000000
O    -4.037000000     2.902000000     0.033000000
H    -2.952000000     1.304000000     0.513000000
O    -4.040000000     2.219000000     2.081000000
C    -2.827000000     2.360000000     2.715000000
C    -2.279000000     1.254000000     3.389000000
H    -2.866000000     0.346000000     3.497000000
C    -1.109000000     1.401000000     4.134000000
O    -0.757000000     0.264000000     4.839000000
C    -0.366000000     2.593000000     4.068000000
C     0.979000000     2.684000000     4.731000000
H     1.163000000     3.760000000     4.752000000
C     2.026000000     2.012000000     3.860000000
C     2.648000000     2.784000000     2.877000000
H     2.385000000     3.829000000     2.737000000
H     0.990000000     2.346000000     5.769000000
C    -0.844000000     3.699000000     3.324000000
H    -0.238000000     4.599000000     3.262000000
C    -2.085000000     3.588000000     2.742000000
C    -2.592000000     4.715000000     1.804000000
H    -2.236000000     5.720000000     2.036000000
H    -3.677000000     4.779000000     1.911000000
C    -2.114000000     4.394000000     0.352000000
C    -0.957000000     4.925000000    -0.200000000
H    -0.290000000     5.547000000     0.391000000
C    -2.871000000     3.527000000    -0.398000000
C    -2.483000000     3.264000000    -1.726000000
H    -3.129000000     2.592000000    -2.286000000
C    -1.286000000     3.697000000    -2.218000000
O    -0.884000000     3.237000000    -3.388000000
C     0.145000000     2.228000000    -3.321000000
C    -0.172000000     0.970000000    -4.241000000
C     0.777000000     0.331000000    -5.029000000
H     1.787000000     0.726000000    -5.109000000
C    -1.442000000     0.365000000    -4.146000000
H    -2.235000000     0.810000000    -3.550000000
O     1.385000000     2.913000000    -3.713000000
H     0.237000000     1.966000000    -2.257000000
C    -0.495000000     4.539000000    -1.431000000
C     0.857000000     5.148000000    -1.841000000
H     1.158000000     6.040000000    -1.288000000
H     0.789000000     5.433000000    -2.893000000
C     1.977000000     4.184000000    -1.688000000
C     2.771000000     4.215000000    -0.524000000
H     2.553000000     4.956000000     0.241000000
C     2.205000000     3.136000000    -2.604000000
C     3.278000000     2.218000000    -2.489000000
H     3.548000000     1.476000000    -3.236000000
C     4.046000000     2.314000000    -1.282000000
O     4.873000000     1.246000000    -0.919000000
C     4.320000000     0.143000000    -0.149000000
C     4.730000000    -1.156000000    -0.872000000
C     4.951000000    -1.361000000    -2.253000000
H     4.737000000    -0.509000000    -2.893000000
C     4.791000000    -2.290000000    -0.083000000
H     4.486000000    -2.154000000     0.951000000
O     4.742000000     0.172000000     1.172000000
H     3.229000000     0.246000000    -0.251000000
C     3.716000000     3.270000000    -0.289000000
C     4.382000000     3.179000000     1.058000000
H     4.277000000     4.186000000     1.467000000
H     5.438000000     2.940000000     0.915000000
C     3.643000000     2.221000000     1.991000000
C     3.882000000     0.816000000     2.060000000
C     3.144000000     0.049000000     2.970000000
H     3.283000000    -1.028000000     2.919000000
C     2.346000000     0.684000000     3.956000000
O     1.570000000    -0.164000000     4.752000000
C     0.329000000    -0.563000000     4.236000000
H     0.240000000    -0.352000000     3.160000000
C     0.033000000    -2.062000000     4.299000000
C    -1.261000000    -2.532000000     4.504000000
H    -2.027000000    -1.798000000     4.745000000
C     1.032000000    -2.973000000     4.008000000
H     2.005000000    -2.543000000     3.783000000
C     0.773000000    -4.322000000     3.870000000
O     1.835000000    -5.165000000     3.547000000
C    -0.532000000    -4.802000000     4.048000000
H    -0.658000000    -5.870000000     3.890000000
C    -1.583000000    -3.959000000     4.337000000
O    -2.815000000    -4.471000000     4.595000000
C    -4.024000000    -3.727000000     4.481000000
C    -4.530000000    -3.370000000     3.221000000
H    -4.090000000    -3.750000000     2.303000000
C    -4.751000000    -3.523000000     5.590000000
H    -4.326000000    -3.705000000     6.574000000
C    -5.961000000    -2.846000000     5.554000000
H    -6.493000000    -2.753000000     6.498000000
C    -6.520000000    -2.503000000     4.286000000
H    -7.535000000    -2.119000000     4.212000000
C    -5.777000000    -2.744000000     3.092000000
O    -6.247000000    -2.603000000     1.848000000
C    -6.041000000    -1.439000000     1.047000000
C    -6.663000000    -1.398000000    -0.199000000
H    -7.192000000    -2.264000000    -0.589000000
C    -6.560000000    -0.291000000    -1.025000000
O    -7.073000000    -0.437000000    -2.305000000
C    -6.279000000    -0.143000000    -3.366000000
C    -5.117000000    -0.944000000    -3.644000000
H    -4.954000000    -1.823000000    -3.025000000
C    -6.473000000     1.002000000    -4.169000000
H    -7.320000000     1.667000000    -4.018000000
C    -5.578000000     1.319000000    -5.134000000
H    -5.849000000     2.237000000    -5.648000000
C    -4.440000000     0.593000000    -5.394000000
H    -3.886000000     0.887000000    -6.282000000
C    -4.197000000    -0.572000000    -4.629000000
O    -3.052000000    -1.304000000    -4.869000000
C    -1.761000000    -0.828000000    -4.847000000
C    -0.748000000    -1.414000000    -5.630000000
H    -0.941000000    -2.272000000    -6.269000000
C     0.493000000    -0.814000000    -5.695000000
O     1.492000000    -1.278000000    -6.564000000
C     2.838000000    -1.221000000    -6.367000000
C     3.506000000    -2.087000000    -5.488000000
H     2.892000000    -2.799000000    -4.943000000
C     3.583000000    -0.264000000    -7.025000000
H     3.152000000     0.388000000    -7.781000000
C     4.964000000    -0.091000000    -6.678000000
H     5.477000000     0.692000000    -7.231000000
C     5.595000000    -0.886000000    -5.657000000
H     6.647000000    -0.741000000    -5.427000000
C     4.825000000    -1.873000000    -5.091000000
O     5.405000000    -2.680000000    -4.154000000
C     5.295000000    -2.637000000    -2.762000000
C     5.418000000    -3.711000000    -1.919000000
H     5.577000000    -4.753000000    -2.185000000
C     5.163000000    -3.550000000    -0.571000000
O     5.207000000    -4.653000000     0.247000000
C     4.937000000    -4.591000000     1.548000000
C     5.816000000    -4.080000000     2.514000000
H     6.819000000    -3.721000000     2.300000000
C     5.378000000    -3.934000000     3.807000000
H     6.051000000    -3.565000000     4.577000000
C     4.074000000    -4.180000000     4.082000000
H     3.753000000    -3.948000000     5.095000000
C     3.150000000    -4.766000000     3.193000000
C     3.607000000    -4.981000000     1.916000000
H     2.958000000    -5.521000000     1.231000000
C    -1.884000000    -1.714000000    -0.921000000
H    -2.719000000    -1.733000000    -1.616000000
C    -1.240000000    -0.488000000    -0.791000000
H    -1.593000000     0.393000000    -1.322000000
C    -0.138000000    -0.358000000     0.008000000
H     0.310000000     0.633000000     0.270000000
C     0.325000000    -1.422000000     0.725000000
H     1.177000000    -1.339000000     1.394000000
C    -0.316000000    -2.681000000     0.688000000
H    -0.016000000    -3.473000000     1.369000000
C    -1.420000000    -2.875000000    -0.197000000
C    -2.080000000    -4.174000000    -0.239000000
O    -1.787000000    -5.116000000     0.515000000
O    -2.830000000    -4.399000000    -1.170000000
O    -4.489000000    -6.666000000    -0.712000000
H    -3.865000000    -5.941000000    -0.713000000
H    -4.537000000    -6.939000000     0.204000000
O    -2.553000000    -8.365000000    -5.404000000
H    -3.331000000    -8.108000000    -4.909000000
H    -1.956000000    -8.721000000    -4.746000000
O    -1.724000000    -8.156000000     2.881000000
H    -1.890000000    -9.019000000     2.502000000
H    -1.368000000    -8.340000000     3.750000000
O    -2.452000000    -4.151000000    -3.958000000
H    -3.280000000    -3.717000000    -4.164000000
H    -2.414000000    -4.151000000    -3.001000000
O    -0.034000000    -8.957000000    -3.447000000
H     0.887000000    -9.134000000    -3.258000000
H    -0.223000000    -8.146000000    -2.976000000
O    -6.698000000    -4.145000000    -4.123000000
H    -6.079000000    -4.044000000    -3.400000000
H    -7.330000000    -4.791000000    -3.808000000
O     0.374000000    -4.195000000    -4.691000000
H     0.591000000    -4.148000000    -5.623000000
H    -0.198000000    -3.443000000    -4.540000000
O    -8.631000000    -5.018000000    -0.459000000
H    -7.888000000    -5.557000000    -0.730000000
H    -9.390000000    -5.593000000    -0.551000000
O     2.900000000    -8.615000000    -2.782000000
H     3.855000000    -8.619000000    -2.722000000
H     2.658000000    -7.693000000    -2.692000000
O     2.354000000    -5.702000000    -3.547000000
H     2.456000000    -5.593000000    -2.602000000
H     1.690000000    -5.058000000    -3.793000000
O     0.143000000    -6.585000000     1.293000000
H    -0.339000000    -6.896000000     2.059000000
H    -0.489000000    -6.049000000     0.813000000
O    -4.478000000    -7.886000000    -3.480000000
H    -4.460000000    -7.446000000    -2.630000000
H    -4.282000000    -8.802000000    -3.279000000
O    -6.291000000    -6.434000000     2.521000000
H    -6.466000000    -7.246000000     2.045000000
H    -5.417000000    -6.171000000     2.234000000
O     0.595000000    -9.175000000     0.649000000
H     0.250000000    -8.287000000     0.558000000
H    -0.132000000    -9.677000000     1.020000000
O    -3.096000000    -5.672000000    -6.208000000
H    -2.664000000    -5.201000000    -5.495000000
H    -2.968000000    -6.596000000    -5.996000000
O     1.882000000    -6.206000000    -0.969000000
H     1.544000000    -6.341000000    -0.083000000
H     1.106000000    -6.235000000    -1.528000000
O    -3.686000000    -6.418000000     1.919000000
H    -3.034000000    -5.822000000     1.549000000
H    -3.174000000    -7.040000000     2.437000000
O    -0.605000000    -6.312000000    -2.031000000
H    -1.239000000    -6.258000000    -1.316000000
H    -0.899000000    -5.657000000    -2.663000000
O    -5.171000000    -3.751000000    -1.881000000
H    -4.251000000    -3.883000000    -1.652000000
H    -5.653000000    -4.307000000    -1.269000000
