215
-1454.24919
C     4.007000000    -2.478000000     2.814000000
H     4.473000000    -3.106000000     2.059000000
C     2.648000000    -2.486000000     3.048000000
C     2.059000000    -1.680000000     3.989000000
H     0.982000000    -1.648000000     4.134000000
C     1.619000000    -3.218000000     2.147000000
O     2.265000000    -4.123000000     1.226000000
H     1.188000000    -2.364000000     1.605000000
O     0.554000000    -3.986000000     2.834000000
C    -0.757000000    -3.960000000     2.403000000
C    -1.633000000    -3.063000000     2.958000000
H    -1.179000000    -2.406000000     3.695000000
C    -2.959000000    -2.894000000     2.513000000
O    -3.766000000    -1.900000000     3.118000000
C    -3.298000000    -3.495000000     1.311000000
C    -4.587000000    -3.210000000     0.581000000
H    -4.795000000    -4.071000000    -0.057000000
C    -4.514000000    -1.959000000    -0.317000000
C    -4.226000000    -2.050000000    -1.693000000
H    -3.904000000    -3.018000000    -2.070000000
H    -5.448000000    -3.042000000     1.231000000
C    -2.344000000    -4.246000000     0.640000000
H    -2.517000000    -4.616000000    -0.367000000
C    -1.128000000    -4.662000000     1.228000000
C    -0.162000000    -5.476000000     0.435000000
H    -0.705000000    -6.174000000    -0.205000000
H     0.527000000    -6.101000000     1.007000000
C     0.794000000    -4.723000000    -0.516000000
C     0.413000000    -4.560000000    -1.828000000
H    -0.563000000    -4.944000000    -2.111000000
C     1.935000000    -4.049000000    -0.074000000
C     2.762000000    -3.321000000    -0.950000000
H     3.642000000    -2.834000000    -0.537000000
C     2.374000000    -3.280000000    -2.289000000
O     3.094000000    -2.386000000    -3.044000000
C     2.482000000    -1.086000000    -3.158000000
C     3.572000000    -0.027000000    -2.898000000
C     3.500000000     1.225000000    -3.477000000
H     2.703000000     1.435000000    -4.186000000
C     4.720000000    -0.344000000    -2.114000000
H     4.811000000    -1.338000000    -1.683000000
O     1.929000000    -0.948000000    -4.472000000
H     1.675000000    -1.056000000    -2.411000000
C     1.174000000    -3.821000000    -2.717000000
C     0.580000000    -3.644000000    -4.109000000
H    -0.120000000    -4.466000000    -4.272000000
H     1.412000000    -3.740000000    -4.810000000
C    -0.069000000    -2.335000000    -4.372000000
C    -1.449000000    -2.313000000    -4.115000000
H    -1.944000000    -3.234000000    -3.816000000
C     0.588000000    -1.092000000    -4.531000000
C    -0.105000000     0.078000000    -4.672000000
H     0.289000000     1.069000000    -4.878000000
C    -1.503000000     0.098000000    -4.439000000
O    -2.194000000     1.256000000    -4.353000000
C    -2.371000000     1.650000000    -2.964000000
C    -2.080000000     3.196000000    -2.787000000
C    -1.096000000     3.823000000    -3.485000000
H    -0.697000000     3.421000000    -4.413000000
C    -2.533000000     3.813000000    -1.642000000
H    -3.263000000     3.262000000    -1.054000000
O    -3.786000000     1.371000000    -2.576000000
H    -1.678000000     1.182000000    -2.250000000
C    -2.144000000    -1.118000000    -4.202000000
C    -3.658000000    -1.132000000    -3.988000000
H    -4.050000000    -2.114000000    -4.262000000
H    -4.155000000    -0.454000000    -4.685000000
C    -4.060000000    -0.963000000    -2.557000000
C    -4.266000000     0.295000000    -1.981000000
C    -4.556000000     0.418000000    -0.649000000
H    -4.573000000     1.373000000    -0.131000000
C    -4.729000000    -0.681000000     0.162000000
O    -4.881000000    -0.533000000     1.561000000
C    -3.706000000    -0.662000000     2.407000000
H    -2.810000000    -0.739000000     1.774000000
C    -3.624000000     0.418000000     3.419000000
C    -2.986000000     0.237000000     4.627000000
H    -2.654000000    -0.742000000     4.961000000
C    -4.170000000     1.685000000     3.158000000
H    -4.580000000     1.934000000     2.182000000
C    -3.994000000     2.717000000     4.019000000
O    -4.596000000     3.896000000     3.835000000
C    -3.252000000     2.602000000     5.176000000
H    -3.180000000     3.413000000     5.896000000
C    -2.759000000     1.307000000     5.497000000
O    -2.221000000     1.230000000     6.720000000
C    -1.141000000     0.308000000     6.830000000
C     0.094000000     0.548000000     6.226000000
H     0.240000000     1.459000000     5.651000000
C    -1.298000000    -0.922000000     7.451000000
H    -2.309000000    -1.145000000     7.781000000
C    -0.251000000    -1.901000000     7.448000000
H    -0.468000000    -2.889000000     7.847000000
C     1.014000000    -1.581000000     6.983000000
H     1.796000000    -2.331000000     7.069000000
C     1.194000000    -0.312000000     6.391000000
O     2.357000000    -0.058000000     5.746000000
C     2.904000000    -0.875000000     4.797000000
C     4.252000000    -0.780000000     4.519000000
H     4.978000000    -0.159000000     5.038000000
C     4.797000000    -1.533000000     3.470000000
O     6.159000000    -1.356000000     3.164000000
C     6.565000000    -1.559000000     1.893000000
C     6.640000000    -0.495000000     1.035000000
H     6.243000000     0.453000000     1.391000000
C     7.039000000    -2.815000000     1.500000000
H     7.202000000    -3.582000000     2.253000000
C     7.431000000    -2.986000000     0.152000000
H     7.680000000    -3.980000000    -0.211000000
C     7.396000000    -1.921000000    -0.724000000
H     7.779000000    -2.012000000    -1.737000000
C     7.042000000    -0.688000000    -0.275000000
O     6.877000000     0.368000000    -1.188000000
C     5.670000000     0.648000000    -1.832000000
C     5.498000000     1.895000000    -2.463000000
H     6.136000000     2.715000000    -2.142000000
C     4.420000000     2.199000000    -3.226000000
O     4.198000000     3.527000000    -3.392000000
C     3.299000000     4.116000000    -4.199000000
C     2.132000000     4.618000000    -3.664000000
H     1.877000000     4.371000000    -2.636000000
C     3.709000000     4.417000000    -5.477000000
H     4.725000000     4.179000000    -5.781000000
C     2.944000000     5.282000000    -6.269000000
H     3.418000000     5.645000000    -7.177000000
C     1.678000000     5.669000000    -5.795000000
H     1.026000000     6.300000000    -6.395000000
C     1.289000000     5.325000000    -4.522000000
O     0.066000000     5.801000000    -4.071000000
C    -0.818000000     5.183000000    -3.207000000
C    -1.455000000     5.903000000    -2.158000000
H    -1.226000000     6.946000000    -1.952000000
C    -2.203000000     5.136000000    -1.261000000
O    -2.670000000     5.695000000    -0.081000000
C    -3.820000000     5.263000000     0.602000000
C    -5.085000000     5.391000000    -0.025000000
H    -5.160000000     5.907000000    -0.979000000
C    -6.182000000     4.902000000     0.678000000
H    -7.158000000     4.947000000     0.200000000
C    -6.091000000     4.528000000     2.072000000
H    -6.963000000     4.200000000     2.632000000
C    -4.829000000     4.441000000     2.620000000
C    -3.673000000     4.738000000     1.862000000
H    -2.695000000     4.604000000     2.317000000
C     1.666000000     1.180000000     1.636000000
H     2.731000000     1.202000000     1.853000000
C     1.141000000     0.194000000     0.830000000
H     1.807000000    -0.597000000     0.495000000
C    -0.126000000     0.113000000     0.391000000
H    -0.531000000    -0.708000000    -0.155000000
C    -1.033000000     1.113000000     0.856000000
H    -2.074000000     1.131000000     0.544000000
C    -0.592000000     2.043000000     1.714000000
H    -1.311000000     2.687000000     2.215000000
C     0.764000000     2.156000000     2.120000000
C     1.247000000     3.340000000     2.915000000
O     0.432000000     4.219000000     3.102000000
O     2.436000000     3.598000000     2.914000000
O     3.719000000     3.560000000     0.480000000
H     3.182000000     3.124000000    -0.181000000
H     3.188000000     3.535000000     1.276000000
O     1.318000000     2.585000000     9.054000000
H     1.010000000     3.215000000     8.404000000
H     0.913000000     2.869000000     9.874000000
O     1.188000000     3.006000000    -0.821000000
H     0.884000000     3.794000000    -0.372000000
H     0.789000000     2.284000000    -0.336000000
O    -1.698000000     5.375000000     4.698000000
H    -1.041000000     5.253000000     4.012000000
H    -1.983000000     4.488000000     4.917000000
O     3.757000000     1.719000000     8.020000000
H     3.646000000     1.952000000     7.099000000
H     2.888000000     1.838000000     8.404000000
O     0.038000000     8.035000000     0.743000000
H     0.164000000     8.638000000     0.010000000
H    -0.464000000     8.539000000     1.384000000
O     4.121000000     5.809000000     4.355000000
H     3.267000000     5.770000000     3.925000000
H     4.667000000     6.319000000     3.756000000
O     0.647000000     5.241000000     0.644000000
H     0.137000000     6.048000000     0.579000000
H     0.318000000     4.813000000     1.435000000
O     6.236000000     4.559000000     0.237000000
H     6.142000000     5.169000000    -0.494000000
H     5.375000000     4.148000000     0.319000000
O    -1.774000000     7.793000000     3.747000000
H    -1.944000000     6.986000000     4.233000000
H    -2.559000000     7.921000000     3.214000000
O     3.066000000     6.220000000     0.088000000
H     3.557000000     5.432000000     0.323000000
H     2.148000000     5.957000000     0.151000000
O     4.974000000     5.617000000     7.091000000
H     4.559000000     5.678000000     6.231000000
H     4.915000000     4.690000000     7.320000000
O     1.749000000     4.848000000     6.628000000
H     1.897000000     5.212000000     5.755000000
H     2.134000000     3.973000000     6.592000000
O    -0.006000000     8.381000000     5.768000000
H    -0.459000000     8.252000000     4.934000000
H     0.820000000     8.800000000     5.530000000
O    -1.210000000     5.684000000     7.393000000
H    -2.097000000     5.979000000     7.187000000
H    -0.739000000     5.742000000     6.561000000
O     1.920000000     7.066000000     2.985000000
H     1.649000000     6.153000000     3.088000000
H     1.517000000     7.344000000     2.163000000
O     3.689000000     3.180000000     5.508000000
H     3.251000000     2.710000000     4.799000000
H     4.325000000     3.742000000     5.067000000
O     5.024000000     3.157000000     3.094000000
H     4.094000000     3.302000000     2.918000000
H     5.476000000     3.745000000     2.489000000
O     6.868000000     3.095000000     5.287000000
H     7.434000000     3.726000000     4.842000000
H     6.289000000     2.766000000     4.599000000
