215
-1466.00823
C     4.073000000    -2.514000000     2.746000000
H     4.295000000    -3.074000000     1.840000000
C     2.781000000    -2.644000000     3.302000000
C     2.502000000    -2.035000000     4.508000000
H     1.471000000    -1.945000000     4.842000000
C     1.724000000    -3.413000000     2.481000000
O     2.374000000    -4.379000000     1.580000000
H     1.250000000    -2.573000000     1.951000000
O     0.711000000    -4.117000000     3.268000000
C    -0.537000000    -3.966000000     2.836000000
C    -1.224000000    -2.895000000     3.447000000
H    -0.746000000    -2.280000000     4.204000000
C    -2.446000000    -2.455000000     2.933000000
O    -2.986000000    -1.305000000     3.504000000
C    -3.053000000    -3.218000000     1.986000000
C    -4.484000000    -2.853000000     1.564000000
H    -5.005000000    -3.695000000     1.103000000
C    -4.555000000    -1.860000000     0.373000000
C    -4.412000000    -2.252000000    -1.003000000
H    -4.107000000    -3.265000000    -1.253000000
H    -5.032000000    -2.481000000     2.432000000
C    -2.378000000    -4.225000000     1.325000000
H    -2.759000000    -4.813000000     0.494000000
C    -1.079000000    -4.620000000     1.720000000
C    -0.301000000    -5.657000000     0.959000000
H    -1.009000000    -6.408000000     0.603000000
H     0.363000000    -6.202000000     1.633000000
C     0.565000000    -4.919000000    -0.040000000
C     0.126000000    -4.900000000    -1.351000000
H    -0.827000000    -5.349000000    -1.618000000
C     1.846000000    -4.429000000     0.253000000
C     2.578000000    -3.775000000    -0.736000000
H     3.503000000    -3.248000000    -0.513000000
C     2.080000000    -3.746000000    -2.035000000
O     2.796000000    -2.856000000    -2.932000000
C     2.170000000    -1.588000000    -3.201000000
C     3.255000000    -0.458000000    -3.233000000
C     3.228000000     0.434000000    -4.217000000
H     2.421000000     0.454000000    -4.945000000
C     4.082000000    -0.311000000    -2.134000000
H     4.075000000    -1.117000000    -1.405000000
O     1.399000000    -1.669000000    -4.362000000
H     1.531000000    -1.254000000    -2.370000000
C     0.848000000    -4.291000000    -2.387000000
C     0.183000000    -4.160000000    -3.767000000
H    -0.353000000    -5.111000000    -3.815000000
H     0.934000000    -4.149000000    -4.559000000
C    -0.584000000    -2.841000000    -3.969000000
C    -1.957000000    -2.771000000    -3.713000000
H    -2.521000000    -3.670000000    -3.478000000
C     0.044000000    -1.648000000    -4.288000000
C    -0.581000000    -0.405000000    -4.335000000
H    -0.080000000     0.554000000    -4.443000000
C    -1.950000000    -0.376000000    -4.087000000
O    -2.588000000     0.865000000    -4.187000000
C    -2.799000000     1.498000000    -2.932000000
C    -2.487000000     2.959000000    -2.909000000
C    -1.386000000     3.428000000    -3.621000000
H    -0.840000000     2.772000000    -4.295000000
C    -3.168000000     3.851000000    -2.077000000
H    -4.072000000     3.588000000    -1.534000000
O    -4.135000000     1.220000000    -2.500000000
H    -2.205000000     1.004000000    -2.149000000
C    -2.600000000    -1.547000000    -3.747000000
C    -4.089000000    -1.482000000    -3.446000000
H    -4.670000000    -2.365000000    -3.719000000
H    -4.519000000    -0.771000000    -4.154000000
C    -4.355000000    -1.177000000    -1.993000000
C    -4.347000000     0.159000000    -1.608000000
C    -4.482000000     0.457000000    -0.269000000
H    -4.375000000     1.481000000     0.078000000
C    -4.699000000    -0.510000000     0.733000000
O    -4.535000000    -0.095000000     2.046000000
C    -3.232000000    -0.199000000     2.619000000
H    -2.521000000    -0.198000000     1.780000000
C    -2.840000000     1.048000000     3.383000000
C    -1.870000000     1.105000000     4.361000000
H    -1.397000000     0.162000000     4.623000000
C    -3.307000000     2.321000000     2.955000000
H    -3.989000000     2.395000000     2.112000000
C    -2.928000000     3.536000000     3.496000000
O    -3.424000000     4.764000000     3.224000000
C    -1.964000000     3.535000000     4.440000000
H    -1.642000000     4.469000000     4.894000000
C    -1.456000000     2.340000000     4.924000000
O    -0.583000000     2.332000000     6.042000000
C     0.077000000     1.276000000     6.640000000
C     1.259000000     0.916000000     6.045000000
H     1.692000000     1.503000000     5.239000000
C    -0.446000000     0.723000000     7.822000000
H    -1.427000000     0.932000000     8.240000000
C     0.265000000    -0.412000000     8.348000000
H    -0.152000000    -0.783000000     9.280000000
C     1.465000000    -0.801000000     7.799000000
H     2.117000000    -1.507000000     8.308000000
C     1.915000000    -0.182000000     6.655000000
O     3.213000000    -0.469000000     6.283000000
C     3.470000000    -1.256000000     5.223000000
C     4.750000000    -1.214000000     4.660000000
H     5.540000000    -0.628000000     5.121000000
C     5.053000000    -1.805000000     3.435000000
O     6.365000000    -1.775000000     2.893000000
C     6.661000000    -1.560000000     1.603000000
C     6.189000000    -0.462000000     0.801000000
H     5.593000000     0.254000000     1.362000000
C     7.395000000    -2.540000000     0.978000000
H     7.651000000    -3.488000000     1.444000000
C     7.791000000    -2.383000000    -0.377000000
H     8.346000000    -3.161000000    -0.897000000
C     7.438000000    -1.232000000    -1.138000000
H     7.813000000    -1.039000000    -2.140000000
C     6.643000000    -0.252000000    -0.531000000
O     6.131000000     0.832000000    -1.293000000
C     5.061000000     0.663000000    -2.165000000
C     4.971000000     1.685000000    -3.117000000
H     5.746000000     2.446000000    -3.157000000
C     4.087000000     1.538000000    -4.139000000
O     4.066000000     2.474000000    -5.201000000
C     2.938000000     3.087000000    -5.631000000
C     2.120000000     3.784000000    -4.673000000
H     2.417000000     3.884000000    -3.632000000
C     2.513000000     2.882000000    -6.909000000
H     3.127000000     2.257000000    -7.553000000
C     1.254000000     3.450000000    -7.304000000
H     0.893000000     3.258000000    -8.312000000
C     0.515000000     4.227000000    -6.442000000
H    -0.350000000     4.686000000    -6.914000000
C     0.902000000     4.363000000    -5.101000000
O     0.184000000     5.170000000    -4.294000000
C    -0.931000000     4.745000000    -3.576000000
C    -1.655000000     5.572000000    -2.778000000
H    -1.441000000     6.637000000    -2.814000000
C    -2.766000000     5.141000000    -2.040000000
O    -3.415000000     6.136000000    -1.251000000
C    -4.080000000     5.873000000    -0.118000000
C    -5.356000000     6.374000000     0.016000000
H    -5.810000000     6.939000000    -0.794000000
C    -6.082000000     6.098000000     1.143000000
H    -7.071000000     6.538000000     1.240000000
C    -5.463000000     5.460000000     2.274000000
H    -6.012000000     5.229000000     3.184000000
C    -4.134000000     5.179000000     2.120000000
C    -3.416000000     5.349000000     0.929000000
H    -2.347000000     5.160000000     0.875000000
C     1.959000000     0.874000000     1.637000000
H     2.961000000     0.762000000     2.042000000
C     1.355000000    -0.157000000     0.915000000
H     1.880000000    -1.102000000     0.806000000
C     0.087000000    -0.017000000     0.420000000
H    -0.385000000    -0.861000000    -0.070000000
C    -0.609000000     1.152000000     0.624000000
H    -1.635000000     1.304000000     0.298000000
C     0.031000000     2.213000000     1.291000000
H    -0.529000000     3.138000000     1.404000000
C     1.295000000     2.082000000     1.769000000
C     1.884000000     3.227000000     2.560000000
O     1.505000000     4.330000000     2.328000000
O     2.912000000     3.012000000     3.180000000
O     1.557000000     2.802000000    -1.448000000
H     1.551000000     2.111000000    -2.110000000
H     1.380000000     2.347000000    -0.625000000
O     3.800000000     6.035000000     2.968000000
H     3.009000000     5.555000000     2.721000000
H     3.540000000     6.956000000     2.938000000
O     2.159000000     3.820000000     8.148000000
H     2.127000000     3.831000000     7.191000000
H     3.093000000     3.770000000     8.355000000
O    -0.039000000     7.287000000     0.118000000
H     0.468000000     6.510000000    -0.119000000
H    -0.318000000     7.124000000     1.019000000
O     6.650000000     5.404000000     1.805000000
H     7.140000000     6.227000000     1.791000000
H     5.790000000     5.644000000     2.151000000
O     2.610000000     4.226000000     5.513000000
H     2.708000000     3.776000000     4.674000000
H     3.506000000     4.415000000     5.790000000
O     1.716000000     5.196000000    -0.254000000
H     1.561000000     4.950000000     0.658000000
H     1.589000000     4.385000000    -0.746000000
O     3.301000000     6.066000000    -2.426000000
H     3.077000000     6.702000000    -3.106000000
H     2.644000000     6.205000000    -1.743000000
O     4.420000000     4.191000000    -0.849000000
H     4.162000000     4.881000000    -1.461000000
H     3.598000000     3.905000000    -0.451000000
O    -2.065000000     8.521000000     2.167000000
H    -2.944000000     8.818000000     2.400000000
H    -1.895000000     7.788000000     2.759000000
O     5.276000000     5.205000000     5.305000000
H     5.267000000     5.888000000     5.975000000
H     4.795000000     5.585000000     4.569000000
O     0.424000000     6.092000000     5.274000000
H     0.370000000     6.281000000     6.211000000
H     0.965000000     5.304000000     5.219000000
O    -1.621000000     8.032000000     5.690000000
H    -1.204000000     7.180000000     5.561000000
H    -2.235000000     7.891000000     6.412000000
O     7.188000000     2.906000000     2.918000000
H     6.521000000     2.579000000     2.314000000
H     7.183000000     3.854000000     2.790000000
O    -0.227000000     6.243000000     2.689000000
H     0.343000000     5.482000000     2.575000000
H    -0.009000000     6.578000000     3.558000000
O     7.084000000     4.142000000    -0.771000000
H     6.149000000     3.943000000    -0.733000000
H     7.258000000     4.629000000     0.034000000
O     5.634000000     1.979000000     5.068000000
H     4.736000000     1.883000000     4.751000000
H     6.062000000     2.530000000     4.414000000
O     4.986000000     2.598000000     1.450000000
H     4.261000000     2.894000000     2.000000000
H     5.036000000     3.247000000     0.749000000
O     0.776000000     6.176000000     7.994000000
H     1.334000000     5.409000000     8.123000000
H    -0.113000000     5.852000000     8.136000000
