215
-1460.47901
C     3.551000000    -1.224000000     3.096000000
H     3.778000000    -1.823000000     2.218000000
C     2.289000000    -1.487000000     3.594000000
C     1.846000000    -0.873000000     4.783000000
H     0.905000000    -1.150000000     5.253000000
C     1.379000000    -2.494000000     2.813000000
O     2.108000000    -3.691000000     2.314000000
H     0.875000000    -2.009000000     1.964000000
O     0.361000000    -2.902000000     3.683000000
C    -0.962000000    -2.894000000     3.234000000
C    -1.700000000    -1.750000000     3.611000000
H    -1.216000000    -0.985000000     4.213000000
C    -2.937000000    -1.608000000     3.063000000
O    -3.610000000    -0.436000000     3.316000000
C    -3.448000000    -2.546000000     2.185000000
C    -4.849000000    -2.288000000     1.490000000
H    -5.372000000    -3.198000000     1.188000000
C    -4.655000000    -1.435000000     0.241000000
C    -4.390000000    -2.035000000    -1.009000000
H    -4.450000000    -3.113000000    -1.136000000
H    -5.513000000    -1.723000000     2.148000000
C    -2.780000000    -3.705000000     1.899000000
H    -3.166000000    -4.415000000     1.173000000
C    -1.464000000    -3.883000000     2.358000000
C    -0.599000000    -5.080000000     1.938000000
H    -1.183000000    -5.907000000     1.528000000
H    -0.147000000    -5.490000000     2.843000000
C     0.429000000    -4.823000000     0.849000000
C    -0.014000000    -5.060000000    -0.490000000
H    -1.015000000    -5.425000000    -0.708000000
C     1.635000000    -4.143000000     1.075000000
C     2.482000000    -3.883000000    -0.011000000
H     3.474000000    -3.474000000     0.163000000
C     2.065000000    -4.099000000    -1.287000000
O     2.814000000    -3.678000000    -2.376000000
C     2.504000000    -2.408000000    -2.994000000
C     3.682000000    -1.509000000    -3.101000000
C     3.559000000    -0.374000000    -3.870000000
H     2.678000000    -0.134000000    -4.460000000
C     4.765000000    -1.679000000    -2.242000000
H     4.827000000    -2.546000000    -1.589000000
O     1.768000000    -2.538000000    -4.184000000
H     1.898000000    -1.876000000    -2.246000000
C     0.781000000    -4.670000000    -1.542000000
C     0.258000000    -4.725000000    -2.954000000
H    -0.465000000    -5.530000000    -3.101000000
H     1.082000000    -4.980000000    -3.624000000
C    -0.397000000    -3.420000000    -3.444000000
C    -1.745000000    -3.169000000    -3.091000000
H    -2.330000000    -3.988000000    -2.680000000
C     0.376000000    -2.424000000    -4.104000000
C    -0.213000000    -1.263000000    -4.580000000
H     0.347000000    -0.470000000    -5.068000000
C    -1.571000000    -1.104000000    -4.340000000
O    -1.988000000     0.181000000    -4.532000000
C    -2.292000000     0.964000000    -3.359000000
C    -1.798000000     2.427000000    -3.565000000
C    -0.872000000     2.743000000    -4.574000000
H    -0.577000000     1.946000000    -5.251000000
C    -2.209000000     3.403000000    -2.593000000
H    -2.974000000     3.239000000    -1.838000000
O    -3.681000000     0.893000000    -3.016000000
H    -1.678000000     0.613000000    -2.517000000
C    -2.339000000    -2.055000000    -3.662000000
C    -3.802000000    -1.905000000    -3.509000000
H    -4.160000000    -2.930000000    -3.624000000
H    -4.277000000    -1.286000000    -4.273000000
C    -4.135000000    -1.274000000    -2.170000000
C    -4.178000000     0.144000000    -2.019000000
C    -4.454000000     0.756000000    -0.809000000
H    -4.483000000     1.831000000    -0.652000000
C    -4.546000000    -0.040000000     0.277000000
O    -4.640000000     0.647000000     1.464000000
C    -3.470000000     0.640000000     2.346000000
H    -2.602000000     0.450000000     1.697000000
C    -3.273000000     1.947000000     3.111000000
C    -2.614000000     2.005000000     4.376000000
H    -2.291000000     1.054000000     4.792000000
C    -3.573000000     3.117000000     2.460000000
H    -4.194000000     2.999000000     1.576000000
C    -3.280000000     4.338000000     3.078000000
O    -3.706000000     5.508000000     2.489000000
C    -2.482000000     4.402000000     4.213000000
H    -2.155000000     5.329000000     4.676000000
C    -2.205000000     3.221000000     4.888000000
O    -1.435000000     3.352000000     6.048000000
C    -0.741000000     2.326000000     6.702000000
C     0.436000000     1.841000000     6.207000000
H     0.913000000     2.293000000     5.342000000
C    -1.388000000     1.736000000     7.840000000
H    -2.339000000     2.041000000     8.267000000
C    -0.694000000     0.711000000     8.505000000
H    -1.203000000     0.361000000     9.399000000
C     0.538000000     0.256000000     8.006000000
H     1.150000000    -0.446000000     8.566000000
C     1.075000000     0.812000000     6.897000000
O     2.329000000     0.380000000     6.650000000
C     2.711000000    -0.032000000     5.466000000
C     3.941000000     0.335000000     4.869000000
H     4.529000000     1.115000000     5.348000000
C     4.379000000    -0.243000000     3.692000000
O     5.533000000     0.104000000     3.032000000
C     6.124000000    -0.798000000     2.153000000
C     6.247000000    -0.353000000     0.831000000
H     5.899000000     0.617000000     0.486000000
C     6.421000000    -2.117000000     2.459000000
H     6.221000000    -2.522000000     3.448000000
C     7.084000000    -2.894000000     1.485000000
H     7.327000000    -3.920000000     1.749000000
C     7.236000000    -2.440000000     0.156000000
H     7.629000000    -2.937000000    -0.727000000
C     6.786000000    -1.194000000    -0.133000000
O     6.862000000    -0.671000000    -1.379000000
C     5.794000000    -0.694000000    -2.207000000
C     5.644000000     0.448000000    -3.018000000
H     6.405000000     1.222000000    -2.964000000
C     4.549000000     0.590000000    -3.896000000
O     4.557000000     1.759000000    -4.597000000
C     3.555000000     2.110000000    -5.438000000
C     2.540000000     2.996000000    -5.077000000
H     2.624000000     3.562000000    -4.152000000
C     3.488000000     1.388000000    -6.668000000
H     4.270000000     0.651000000    -6.833000000
C     2.515000000     1.704000000    -7.593000000
H     2.560000000     1.332000000    -8.613000000
C     1.498000000     2.640000000    -7.196000000
H     0.597000000     2.778000000    -7.789000000
C     1.555000000     3.347000000    -5.984000000
O     0.624000000     4.312000000    -5.669000000
C    -0.316000000     4.061000000    -4.676000000
C    -0.814000000     5.074000000    -3.810000000
H    -0.559000000     6.120000000    -3.953000000
C    -1.673000000     4.694000000    -2.783000000
O    -2.149000000     5.761000000    -2.071000000
C    -3.172000000     5.632000000    -1.212000000
C    -4.500000000     5.427000000    -1.639000000
H    -4.672000000     5.427000000    -2.712000000
C    -5.507000000     5.230000000    -0.747000000
H    -6.522000000     5.102000000    -1.113000000
C    -5.213000000     5.409000000     0.601000000
H    -5.942000000     5.283000000     1.398000000
C    -3.912000000     5.635000000     1.079000000
C    -2.903000000     5.782000000     0.146000000
H    -1.846000000     5.773000000     0.400000000
C     2.166000000     1.322000000     1.180000000
H     3.180000000     1.300000000     1.571000000
C     1.652000000     0.319000000     0.303000000
H     2.296000000    -0.515000000     0.039000000
C     0.279000000     0.275000000    -0.005000000
H    -0.120000000    -0.383000000    -0.790000000
C    -0.537000000     1.349000000     0.381000000
H    -1.548000000     1.340000000    -0.019000000
C     0.019000000     2.385000000     1.171000000
H    -0.667000000     3.127000000     1.572000000
C     1.382000000     2.318000000     1.672000000
C     1.915000000     3.427000000     2.585000000
O     1.192000000     4.263000000     3.108000000
O     3.126000000     3.630000000     2.684000000
O     3.483000000     6.692000000     7.237000000
H     3.093000000     6.455000000     6.395000000
H     3.583000000     5.859000000     7.697000000
O     3.633000000     6.253000000     2.162000000
H     3.349000000     5.339000000     2.172000000
H     3.185000000     6.651000000     2.909000000
O     4.614000000     8.355000000     0.520000000
H     5.468000000     8.470000000     0.937000000
H     4.168000000     7.704000000     1.062000000
O    -0.951000000     8.428000000     0.923000000
H    -0.633000000     9.085000000     1.543000000
H    -0.540000000     7.612000000     1.208000000
O     6.770000000     6.032000000     2.665000000
H     5.913000000     5.936000000     2.248000000
H     7.120000000     6.848000000     2.307000000
O     2.941000000     8.246000000     4.106000000
H     2.530000000     8.567000000     4.909000000
H     2.689000000     8.882000000     3.437000000
O     4.224000000     3.987000000     5.093000000
H     3.951000000     4.008000000     4.176000000
H     3.405000000     3.940000000     5.586000000
O     5.514000000     2.771000000     2.083000000
H     5.737000000     2.038000000     2.657000000
H     4.688000000     3.106000000     2.432000000
O     0.790000000     9.048000000     5.793000000
H     0.247000000     8.608000000     5.139000000
H     0.893000000     8.403000000     6.492000000
O     6.419000000     3.529000000    -1.256000000
H     7.037000000     3.155000000    -0.628000000
H     5.557000000     3.333000000    -0.889000000
O     3.661000000     3.853000000     8.548000000
H     4.502000000     3.884000000     9.004000000
H     3.572000000     2.941000000     8.271000000
O     2.255000000     2.239000000    -1.916000000
H     1.369000000     2.576000000    -2.047000000
H     2.199000000     1.723000000    -1.112000000
O     8.366000000     3.887000000     0.975000000
H     8.697000000     3.178000000     1.525000000
H     7.782000000     4.383000000     1.549000000
O    -0.178000000     7.012000000     4.031000000
H     0.178000000     7.061000000     3.144000000
H    -0.002000000     6.114000000     4.311000000
O    -1.042000000     6.076000000     7.316000000
H    -0.258000000     6.541000000     7.608000000
H    -1.275000000     6.497000000     6.488000000
O     0.268000000     5.988000000     1.490000000
H     0.488000000     5.316000000     2.134000000
H     0.620000000     5.654000000     0.665000000
O     1.184000000     9.049000000    -0.919000000
H     1.148000000     9.919000000    -0.522000000
H     0.554000000     8.531000000    -0.418000000
O     6.675000000     5.014000000     5.097000000
H     6.648000000     5.433000000     4.237000000
H     5.826000000     4.579000000     5.178000000
O     1.545000000     4.894000000     5.622000000
H     1.576000000     4.507000000     4.747000000
H     0.611000000     4.969000000     5.817000000
