215
-1465.07425
C     2.197000000    -2.620000000     4.309000000
H     2.644000000    -3.485000000     3.826000000
C     0.810000000    -2.182000000     4.179000000
C     0.495000000    -0.969000000     4.705000000
H    -0.516000000    -0.587000000     4.586000000
C    -0.151000000    -2.874000000     3.223000000
O     0.211000000    -4.239000000     2.952000000
H    -0.131000000    -2.160000000     2.387000000
O    -1.493000000    -2.919000000     3.749000000
C    -2.489000000    -2.682000000     2.836000000
C    -3.122000000    -1.445000000     2.961000000
H    -2.902000000    -0.743000000     3.762000000
C    -4.021000000    -1.048000000     2.020000000
O    -4.493000000     0.263000000     2.042000000
C    -4.392000000    -1.888000000     0.946000000
C    -5.376000000    -1.421000000    -0.162000000
H    -5.864000000    -2.374000000    -0.379000000
C    -4.736000000    -0.594000000    -1.303000000
C    -4.159000000    -1.295000000    -2.377000000
H    -4.279000000    -2.374000000    -2.442000000
H    -6.109000000    -0.797000000     0.355000000
C    -3.829000000    -3.123000000     0.859000000
H    -4.082000000    -3.746000000     0.005000000
C    -2.874000000    -3.559000000     1.757000000
C    -2.309000000    -4.967000000     1.661000000
H    -2.931000000    -5.703000000     1.147000000
H    -2.108000000    -5.366000000     2.657000000
C    -0.938000000    -4.869000000     0.935000000
C    -0.883000000    -4.885000000    -0.477000000
H    -1.790000000    -5.101000000    -1.035000000
C     0.222000000    -4.550000000     1.622000000
C     1.449000000    -4.316000000     0.922000000
H     2.350000000    -3.987000000     1.433000000
C     1.472000000    -4.399000000    -0.474000000
O     2.635000000    -3.949000000    -1.062000000
C     2.562000000    -2.609000000    -1.596000000
C     3.817000000    -1.795000000    -1.440000000
C     4.395000000    -1.072000000    -2.492000000
H     3.947000000    -1.068000000    -3.482000000
C     4.422000000    -1.671000000    -0.174000000
H     3.945000000    -2.159000000     0.672000000
O     2.287000000    -2.827000000    -3.027000000
H     1.725000000    -2.058000000    -1.143000000
C     0.333000000    -4.726000000    -1.209000000
C     0.285000000    -4.774000000    -2.670000000
H    -0.503000000    -5.468000000    -2.969000000
H     1.145000000    -5.297000000    -3.092000000
C    -0.026000000    -3.452000000    -3.310000000
C    -1.365000000    -3.067000000    -3.627000000
H    -2.174000000    -3.738000000    -3.349000000
C     1.005000000    -2.542000000    -3.536000000
C     0.808000000    -1.352000000    -4.185000000
H     1.646000000    -0.674000000    -4.325000000
C    -0.462000000    -0.937000000    -4.443000000
O    -0.615000000     0.352000000    -4.908000000
C    -1.092000000     1.395000000    -3.999000000
C    -0.376000000     2.691000000    -4.124000000
C     0.885000000     2.637000000    -4.692000000
H     1.256000000     1.711000000    -5.125000000
C    -0.779000000     3.812000000    -3.458000000
H    -1.812000000     3.767000000    -3.121000000
O    -2.549000000     1.547000000    -4.080000000
H    -0.853000000     1.232000000    -2.938000000
C    -1.561000000    -1.797000000    -4.241000000
C    -2.987000000    -1.294000000    -4.535000000
H    -3.611000000    -2.186000000    -4.616000000
H    -2.981000000    -0.698000000    -5.450000000
C    -3.569000000    -0.537000000    -3.366000000
C    -3.328000000     0.849000000    -3.206000000
C    -3.783000000     1.460000000    -2.035000000
H    -3.625000000     2.524000000    -1.878000000
C    -4.458000000     0.717000000    -1.097000000
O    -4.749000000     1.427000000     0.063000000
C    -3.836000000     1.236000000     1.190000000
H    -2.901000000     0.735000000     0.899000000
C    -3.471000000     2.540000000     1.926000000
C    -3.055000000     2.487000000     3.298000000
H    -2.927000000     1.547000000     3.828000000
C    -3.584000000     3.775000000     1.315000000
H    -3.972000000     3.769000000     0.299000000
C    -3.220000000     4.955000000     1.934000000
O    -2.892000000     6.098000000     1.252000000
C    -2.989000000     4.905000000     3.319000000
H    -2.719000000     5.782000000     3.901000000
C    -2.942000000     3.729000000     4.008000000
O    -2.720000000     3.757000000     5.356000000
C    -2.164000000     2.732000000     6.048000000
C    -0.828000000     2.376000000     5.735000000
H    -0.196000000     2.890000000     5.015000000
C    -2.936000000     2.042000000     6.901000000
H    -3.968000000     2.330000000     7.081000000
C    -2.369000000     0.977000000     7.613000000
H    -3.006000000     0.392000000     8.271000000
C    -1.023000000     0.682000000     7.386000000
H    -0.565000000    -0.142000000     7.927000000
C    -0.293000000     1.319000000     6.401000000
O     1.009000000     0.845000000     6.281000000
C     1.344000000    -0.370000000     5.625000000
C     2.662000000    -0.726000000     5.776000000
H     3.358000000    -0.329000000     6.510000000
C     3.043000000    -1.937000000     5.224000000
O     4.352000000    -2.452000000     5.303000000
C     5.170000000    -2.491000000     4.167000000
C     5.107000000    -1.423000000     3.347000000
H     4.422000000    -0.593000000     3.504000000
C     6.156000000    -3.508000000     3.999000000
H     6.210000000    -4.298000000     4.743000000
C     6.997000000    -3.492000000     2.906000000
H     7.736000000    -4.281000000     2.787000000
C     6.923000000    -2.422000000     2.027000000
H     7.540000000    -2.457000000     1.133000000
C     5.929000000    -1.439000000     2.213000000
O     5.820000000    -0.400000000     1.356000000
C     5.430000000    -0.731000000     0.078000000
C     6.049000000    -0.038000000    -0.954000000
H     6.844000000     0.685000000    -0.793000000
C     5.531000000    -0.295000000    -2.264000000
O     5.876000000     0.637000000    -3.281000000
C     5.160000000     0.934000000    -4.383000000
C     4.301000000     2.055000000    -4.303000000
H     4.304000000     2.669000000    -3.406000000
C     5.053000000     0.076000000    -5.456000000
H     5.608000000    -0.858000000    -5.502000000
C     4.204000000     0.463000000    -6.494000000
H     4.141000000    -0.163000000    -7.380000000
C     3.488000000     1.647000000    -6.459000000
H     2.911000000     1.966000000    -7.323000000
C     3.581000000     2.487000000    -5.372000000
O     2.856000000     3.634000000    -5.340000000
C     1.685000000     3.739000000    -4.656000000
C     1.293000000     4.977000000    -4.008000000
H     1.938000000     5.852000000    -4.010000000
C     0.031000000     4.907000000    -3.431000000
O    -0.434000000     6.086000000    -2.786000000
C    -1.608000000     6.155000000    -2.125000000
C    -2.821000000     6.350000000    -2.867000000
H    -2.743000000     6.455000000    -3.946000000
C    -4.070000000     6.422000000    -2.218000000
H    -4.990000000     6.482000000    -2.795000000
C    -4.090000000     6.241000000    -0.851000000
H    -5.063000000     6.185000000    -0.368000000
C    -2.918000000     6.155000000    -0.117000000
C    -1.638000000     6.150000000    -0.753000000
H    -0.776000000     6.145000000    -0.092000000
C     1.884000000     1.298000000     1.358000000
H     2.779000000     1.037000000     1.917000000
C     1.089000000     0.256000000     0.899000000
H     1.454000000    -0.752000000     1.076000000
C    -0.056000000     0.453000000     0.202000000
H    -0.569000000    -0.396000000    -0.206000000
C    -0.512000000     1.735000000     0.007000000
H    -1.394000000     2.013000000    -0.564000000
C     0.202000000     2.796000000     0.572000000
H    -0.189000000     3.806000000     0.479000000
C     1.399000000     2.585000000     1.312000000
C     2.133000000     3.797000000     1.916000000
O     1.695000000     4.894000000     1.603000000
O     3.150000000     3.603000000     2.508000000
O     7.095000000     7.460000000    -0.591000000
H     6.842000000     6.570000000    -0.345000000
H     7.286000000     7.404000000    -1.528000000
O     3.560000000     5.950000000     4.704000000
H     3.554000000     5.018000000     4.485000000
H     4.169000000     6.019000000     5.438000000
O     4.797000000     1.661000000     7.511000000
H     4.935000000     1.667000000     6.564000000
H     5.190000000     0.838000000     7.805000000
O     1.948000000     6.353000000    -0.624000000
H     1.889000000     5.907000000     0.221000000
H     1.059000000     6.663000000    -0.794000000
O     1.172000000     7.146000000     5.421000000
H     1.062000000     7.251000000     6.366000000
H     2.068000000     6.827000000     5.318000000
O     3.605000000     2.534000000     4.823000000
H     3.410000000     3.032000000     4.029000000
H     2.783000000     2.533000000     5.313000000
O     5.926000000     4.901000000    -1.019000000
H     5.563000000     4.060000000    -0.741000000
H     6.682000000     4.668000000    -1.559000000
O     0.799000000     8.126000000     0.927000000
H     0.372000000     7.805000000     1.721000000
H     1.722000000     7.899000000     1.043000000
O     5.650000000     5.888000000     2.720000000
H     5.360000000     5.002000000     2.505000000
H     5.075000000     6.458000000     2.209000000
O     2.061000000     1.395000000    -2.132000000
H     1.770000000     1.700000000    -1.272000000
H     1.857000000     2.119000000    -2.724000000
O     6.497000000     2.253000000     4.648000000
H     6.788000000     2.326000000     3.739000000
H     5.569000000     2.483000000     4.622000000
O     4.144000000     6.699000000    -2.152000000
H     4.828000000     6.278000000    -1.632000000
H     3.337000000     6.532000000    -1.665000000
O     7.529000000     6.768000000     4.388000000
H     6.848000000     6.191000000     4.044000000
H     8.120000000     6.910000000     3.648000000
O    -0.241000000     6.495000000     2.932000000
H     0.004000000     6.678000000     3.839000000
H     0.441000000     5.903000000     2.614000000
O     6.871000000     3.166000000     1.797000000
H     7.509000000     2.476000000     1.616000000
H     6.112000000     2.938000000     1.259000000
O     2.388000000     3.222000000     7.443000000
H     2.169000000     2.299000000     7.312000000
H     3.315000000     3.217000000     7.678000000
O     4.714000000     2.413000000     0.413000000
H     3.884000000     2.821000000     0.660000000
H     4.669000000     1.533000000     0.787000000
O     4.527000000     9.546000000     2.272000000
H     3.923000000     8.818000000     2.123000000
H     4.815000000     9.436000000     3.178000000
O     3.286000000     7.081000000     2.130000000
H     2.854000000     6.262000000     1.886000000
H     3.368000000     7.033000000     3.083000000
