215
-1448.49057
C     2.428000000    -2.839000000     3.832000000
H     2.836000000    -3.767000000     3.440000000
C     1.105000000    -2.586000000     3.757000000
C     0.568000000    -1.410000000     4.319000000
H    -0.488000000    -1.161000000     4.251000000
C     0.174000000    -3.358000000     2.815000000
O     0.655000000    -4.574000000     2.140000000
H    -0.045000000    -2.591000000     2.058000000
O    -1.079000000    -3.766000000     3.317000000
C    -2.226000000    -3.539000000     2.428000000
C    -3.007000000    -2.449000000     2.729000000
H    -2.836000000    -1.792000000     3.578000000
C    -4.046000000    -2.059000000     1.858000000
O    -4.579000000    -0.776000000     2.261000000
C    -4.224000000    -2.607000000     0.622000000
C    -5.269000000    -2.073000000    -0.337000000
H    -5.607000000    -2.914000000    -0.946000000
C    -4.729000000    -1.007000000    -1.239000000
C    -4.190000000    -1.343000000    -2.422000000
H    -4.157000000    -2.364000000    -2.793000000
H    -6.201000000    -1.745000000     0.129000000
C    -3.421000000    -3.747000000     0.381000000
H    -3.499000000    -4.257000000    -0.576000000
C    -2.432000000    -4.194000000     1.226000000
C    -1.638000000    -5.397000000     0.793000000
H    -2.196000000    -6.173000000     0.265000000
H    -1.388000000    -5.982000000     1.681000000
C    -0.390000000    -5.048000000     0.053000000
C    -0.455000000    -4.849000000    -1.327000000
H    -1.325000000    -5.151000000    -1.905000000
C     0.725000000    -4.595000000     0.778000000
C     1.781000000    -4.033000000     0.115000000
H     2.642000000    -3.648000000     0.654000000
C     1.755000000    -3.879000000    -1.224000000
O     2.871000000    -3.298000000    -1.852000000
C     2.883000000    -1.996000000    -2.403000000
C     4.140000000    -1.236000000    -2.063000000
C     4.428000000    -0.064000000    -2.730000000
H     3.789000000     0.306000000    -3.528000000
C     4.933000000    -1.587000000    -0.989000000
H     4.686000000    -2.456000000    -0.384000000
O     2.573000000    -2.120000000    -3.791000000
H     2.022000000    -1.454000000    -1.985000000
C     0.666000000    -4.399000000    -1.993000000
C     0.607000000    -4.266000000    -3.544000000
H    -0.235000000    -4.821000000    -3.964000000
H     1.457000000    -4.704000000    -4.071000000
C     0.251000000    -2.855000000    -3.875000000
C    -1.074000000    -2.517000000    -4.025000000
H    -1.893000000    -3.206000000    -3.838000000
C     1.221000000    -1.888000000    -4.036000000
C     0.933000000    -0.592000000    -4.461000000
H     1.696000000     0.182000000    -4.464000000
C    -0.385000000    -0.246000000    -4.503000000
O    -0.780000000     1.061000000    -4.638000000
C    -1.183000000     1.691000000    -3.381000000
C    -0.375000000     2.912000000    -3.046000000
C     0.792000000     3.241000000    -3.731000000
H     1.155000000     2.691000000    -4.596000000
C    -0.875000000     3.813000000    -2.119000000
H    -1.808000000     3.510000000    -1.651000000
O    -2.607000000     1.864000000    -3.288000000
H    -1.002000000     0.982000000    -2.560000000
C    -1.391000000    -1.221000000    -4.386000000
C    -2.826000000    -0.810000000    -4.449000000
H    -3.382000000    -1.636000000    -4.897000000
H    -2.857000000    -0.071000000    -5.252000000
C    -3.420000000    -0.374000000    -3.087000000
C    -3.317000000     0.926000000    -2.639000000
C    -4.006000000     1.329000000    -1.488000000
H    -3.875000000     2.360000000    -1.168000000
C    -4.674000000     0.361000000    -0.767000000
O    -5.118000000     0.643000000     0.468000000
C    -4.267000000     0.452000000     1.581000000
H    -3.235000000     0.347000000     1.215000000
C    -4.152000000     1.695000000     2.429000000
C    -3.790000000     1.573000000     3.750000000
H    -3.692000000     0.573000000     4.165000000
C    -4.271000000     3.019000000     1.879000000
H    -4.509000000     3.089000000     0.820000000
C    -4.113000000     4.115000000     2.736000000
O    -4.330000000     5.380000000     2.176000000
C    -3.875000000     3.946000000     4.077000000
H    -3.744000000     4.798000000     4.740000000
C    -3.674000000     2.702000000     4.603000000
O    -3.495000000     2.536000000     5.982000000
C    -2.488000000     1.677000000     6.353000000
C    -1.265000000     1.652000000     5.686000000
H    -1.106000000     2.423000000     4.936000000
C    -2.656000000     0.865000000     7.495000000
H    -3.652000000     0.772000000     7.920000000
C    -1.659000000    -0.068000000     7.893000000
H    -1.750000000    -0.655000000     8.804000000
C    -0.477000000    -0.074000000     7.137000000
H     0.288000000    -0.829000000     7.297000000
C    -0.281000000     0.747000000     6.045000000
O     0.882000000     0.755000000     5.420000000
C     1.389000000    -0.489000000     4.927000000
C     2.752000000    -0.824000000     5.016000000
H     3.419000000    -0.113000000     5.496000000
C     3.255000000    -1.984000000     4.564000000
O     4.607000000    -2.248000000     4.683000000
C     5.295000000    -2.605000000     3.563000000
C     5.617000000    -1.669000000     2.587000000
H     5.176000000    -0.677000000     2.639000000
C     5.851000000    -3.863000000     3.484000000
H     5.668000000    -4.588000000     4.272000000
C     6.543000000    -4.314000000     2.398000000
H     7.055000000    -5.271000000     2.451000000
C     6.822000000    -3.423000000     1.363000000
H     7.333000000    -3.742000000     0.458000000
C     6.436000000    -2.061000000     1.520000000
O     6.777000000    -1.087000000     0.550000000
C     6.081000000    -0.807000000    -0.592000000
C     6.371000000     0.351000000    -1.326000000
H     7.140000000     1.009000000    -0.928000000
C     5.626000000     0.686000000    -2.414000000
O     5.926000000     1.866000000    -3.098000000
C     5.134000000     2.529000000    -4.052000000
C     4.161000000     3.433000000    -3.757000000
H     3.830000000     3.788000000    -2.784000000
C     5.384000000     2.143000000    -5.362000000
H     6.123000000     1.353000000    -5.465000000
C     4.625000000     2.755000000    -6.394000000
H     4.832000000     2.529000000    -7.437000000
C     3.694000000     3.736000000    -6.086000000
H     3.110000000     4.323000000    -6.791000000
C     3.360000000     3.926000000    -4.750000000
O     2.367000000     4.872000000    -4.440000000
C     1.307000000     4.494000000    -3.621000000
C     0.720000000     5.440000000    -2.706000000
H     1.123000000     6.443000000    -2.592000000
C    -0.380000000     5.088000000    -1.878000000
O    -0.966000000     6.045000000    -1.134000000
C    -2.295000000     6.056000000    -0.768000000
C    -3.159000000     6.682000000    -1.610000000
H    -2.859000000     7.023000000    -2.598000000
C    -4.510000000     6.728000000    -1.269000000
H    -5.261000000     7.143000000    -1.937000000
C    -4.910000000     6.271000000    -0.002000000
H    -5.933000000     6.476000000     0.304000000
C    -3.974000000     5.753000000     0.930000000
C    -2.638000000     5.674000000     0.544000000
H    -1.976000000     5.323000000     1.332000000
C     2.105000000     0.785000000     1.935000000
H     3.084000000     0.591000000     2.365000000
C     1.391000000    -0.090000000     1.052000000
H     1.702000000    -1.101000000     0.805000000
C     0.074000000     0.180000000     0.702000000
H    -0.424000000    -0.496000000     0.064000000
C    -0.507000000     1.351000000     1.210000000
H    -1.547000000     1.524000000     0.944000000
C     0.231000000     2.300000000     1.945000000
H    -0.235000000     3.232000000     2.256000000
C     1.584000000     2.052000000     2.329000000
C     2.359000000     3.034000000     3.228000000
O     1.757000000     3.969000000     3.684000000
O     3.548000000     2.881000000     3.509000000
O     3.738000000     3.517000000     6.058000000
H     2.828000000     3.516000000     6.354000000
H     3.689000000     3.283000000     5.131000000
O     1.973000000     7.104000000     1.387000000
H     1.478000000     6.478000000     1.916000000
H     1.330000000     7.766000000     1.135000000
O     1.067000000     5.658000000     5.539000000
H     0.561000000     5.101000000     6.131000000
H     1.717000000     5.070000000     5.154000000
O     4.134000000     0.342000000     8.020000000
H     4.638000000     0.417000000     7.209000000
H     4.793000000     0.365000000     8.714000000
O     4.967000000     3.533000000     8.767000000
H     4.778000000     3.448000000     7.832000000
H     5.733000000     4.105000000     8.805000000
O     5.786000000     1.907000000     3.148000000
H     6.386000000     2.616000000     2.917000000
H     4.966000000     2.348000000     3.367000000
O     5.957000000     4.397000000    -0.691000000
H     5.062000000     4.629000000    -0.443000000
H     5.972000000     3.440000000    -0.662000000
O    -0.724000000     8.106000000     1.558000000
H    -0.754000000     8.421000000     2.461000000
H    -0.664000000     7.154000000     1.639000000
O     5.854000000     0.400000000     5.829000000
H     5.763000000     0.786000000     4.958000000
H     6.355000000    -0.402000000     5.685000000
O     1.627000000     2.839000000    -0.543000000
H     1.488000000     2.300000000     0.236000000
H     0.778000000     2.845000000    -0.985000000
O     4.805000000     5.334000000     3.359000000
H     4.034000000     4.773000000     3.267000000
H     5.460000000     4.936000000     2.786000000
O     3.459000000     5.155000000     0.034000000
H     2.776000000     4.570000000    -0.295000000
H     3.007000000     5.720000000     0.661000000
O     0.122000000     5.714000000     2.907000000
H     0.023000000     6.104000000     3.775000000
H     0.653000000     4.932000000     3.054000000
O     1.134000000     2.960000000     7.480000000
H     0.959000000     2.260000000     6.852000000
H     1.399000000     2.505000000     8.279000000
O     2.347000000     7.634000000     6.973000000
H     2.047000000     7.111000000     7.717000000
H     1.938000000     7.223000000     6.211000000
O     3.601000000     8.299000000     3.943000000
H     3.951000000     7.719000000     3.267000000
H     2.659000000     8.129000000     3.941000000
O     7.508000000     4.075000000     2.842000000
H     8.053000000     4.369000000     3.573000000
H     7.779000000     4.624000000     2.106000000
O     5.885000000     5.301000000     5.926000000
H     5.122000000     4.742000000     6.068000000
H     5.971000000     5.353000000     4.974000000
O     4.457000000     1.982000000    -0.109000000
H     4.446000000     1.522000000     0.730000000
H     3.534000000     2.108000000    -0.326000000
