215
-1464.94463
C     2.270000000    -2.783000000     3.578000000
H     2.612000000    -3.340000000     2.710000000
C     0.913000000    -2.530000000     3.869000000
C     0.576000000    -1.531000000     4.734000000
H    -0.471000000    -1.260000000     4.844000000
C    -0.144000000    -3.117000000     2.896000000
O     0.459000000    -4.326000000     2.320000000
H    -0.322000000    -2.357000000     2.121000000
O    -1.410000000    -3.509000000     3.452000000
C    -2.507000000    -3.206000000     2.687000000
C    -3.174000000    -1.985000000     2.929000000
H    -2.802000000    -1.400000000     3.767000000
C    -4.105000000    -1.505000000     2.060000000
O    -4.477000000    -0.201000000     2.263000000
C    -4.389000000    -2.140000000     0.849000000
C    -5.391000000    -1.564000000    -0.186000000
H    -5.698000000    -2.374000000    -0.851000000
C    -4.742000000    -0.504000000    -1.065000000
C    -4.391000000    -0.906000000    -2.347000000
H    -4.394000000    -1.950000000    -2.650000000
H    -6.284000000    -1.222000000     0.341000000
C    -3.833000000    -3.387000000     0.697000000
H    -4.174000000    -4.020000000    -0.118000000
C    -2.833000000    -3.880000000     1.556000000
C    -2.146000000    -5.125000000     1.170000000
H    -2.800000000    -5.720000000     0.528000000
H    -1.827000000    -5.668000000     2.062000000
C    -0.871000000    -4.701000000     0.308000000
C    -0.969000000    -4.739000000    -1.078000000
H    -1.885000000    -5.058000000    -1.568000000
C     0.339000000    -4.393000000     0.905000000
C     1.381000000    -3.990000000     0.098000000
H     2.257000000    -3.702000000     0.673000000
C     1.300000000    -3.958000000    -1.271000000
O     2.431000000    -3.599000000    -1.946000000
C     2.567000000    -2.271000000    -2.454000000
C     4.003000000    -1.748000000    -2.196000000
C     4.362000000    -0.496000000    -2.678000000
H     3.629000000     0.075000000    -3.243000000
C     4.831000000    -2.445000000    -1.391000000
H     4.578000000    -3.424000000    -0.990000000
O     2.188000000    -2.283000000    -3.830000000
H     1.898000000    -1.601000000    -1.894000000
C     0.086000000    -4.376000000    -1.915000000
C    -0.052000000    -4.226000000    -3.454000000
H    -0.925000000    -4.793000000    -3.785000000
H     0.778000000    -4.729000000    -3.956000000
C    -0.165000000    -2.753000000    -3.890000000
C    -1.456000000    -2.299000000    -3.955000000
H    -2.280000000    -2.935000000    -3.642000000
C     0.898000000    -1.913000000    -4.116000000
C     0.666000000    -0.588000000    -4.372000000
H     1.472000000     0.139000000    -4.424000000
C    -0.648000000    -0.139000000    -4.631000000
O    -0.788000000     1.233000000    -4.779000000
C    -1.262000000     1.952000000    -3.646000000
C    -0.495000000     3.280000000    -3.490000000
C     0.818000000     3.340000000    -3.926000000
H     1.222000000     2.535000000    -4.534000000
C    -1.059000000     4.308000000    -2.855000000
H    -2.097000000     4.334000000    -2.531000000
O    -2.731000000     2.181000000    -3.744000000
H    -1.067000000     1.349000000    -2.747000000
C    -1.723000000    -1.042000000    -4.477000000
C    -3.176000000    -0.637000000    -4.559000000
H    -3.781000000    -1.464000000    -4.935000000
H    -3.241000000     0.111000000    -5.352000000
C    -3.680000000    -0.046000000    -3.243000000
C    -3.473000000     1.293000000    -2.922000000
C    -3.904000000     1.712000000    -1.641000000
H    -3.744000000     2.738000000    -1.320000000
C    -4.492000000     0.845000000    -0.701000000
O    -4.729000000     1.290000000     0.529000000
C    -3.803000000     0.888000000     1.548000000
H    -2.876000000     0.466000000     1.132000000
C    -3.455000000     2.077000000     2.410000000
C    -3.075000000     1.895000000     3.721000000
H    -2.943000000     0.861000000     4.028000000
C    -3.571000000     3.328000000     1.853000000
H    -4.022000000     3.427000000     0.869000000
C    -3.208000000     4.433000000     2.654000000
O    -3.317000000     5.719000000     2.210000000
C    -2.816000000     4.297000000     3.956000000
H    -2.547000000     5.146000000     4.578000000
C    -2.762000000     3.017000000     4.532000000
O    -2.367000000     2.922000000     5.862000000
C    -1.817000000     1.831000000     6.459000000
C    -0.515000000     1.504000000     6.228000000
H     0.003000000     2.057000000     5.449000000
C    -2.536000000     1.162000000     7.461000000
H    -3.576000000     1.427000000     7.633000000
C    -1.939000000     0.140000000     8.180000000
H    -2.469000000    -0.352000000     8.991000000
C    -0.660000000    -0.331000000     7.870000000
H    -0.165000000    -1.194000000     8.309000000
C     0.028000000     0.374000000     6.867000000
O     1.312000000     0.010000000     6.541000000
C     1.573000000    -0.882000000     5.488000000
C     2.833000000    -1.303000000     5.431000000
H     3.655000000    -0.897000000     6.015000000
C     3.226000000    -2.167000000     4.378000000
O     4.577000000    -2.186000000     4.001000000
C     5.221000000    -2.900000000     2.979000000
C     5.762000000    -2.285000000     1.844000000
H     5.505000000    -1.245000000     1.658000000
C     5.372000000    -4.235000000     3.291000000
H     4.983000000    -4.589000000     4.242000000
C     6.133000000    -5.028000000     2.448000000
H     6.310000000    -6.066000000     2.719000000
C     6.690000000    -4.472000000     1.287000000
H     7.319000000    -5.076000000     0.637000000
C     6.487000000    -3.130000000     0.940000000
O     6.881000000    -2.710000000    -0.299000000
C     6.092000000    -1.904000000    -1.157000000
C     6.464000000    -0.661000000    -1.658000000
H     7.429000000    -0.243000000    -1.380000000
C     5.585000000     0.059000000    -2.393000000
O     6.071000000     1.172000000    -3.029000000
C     5.267000000     1.821000000    -3.975000000
C     4.411000000     2.822000000    -3.559000000
H     4.196000000     3.029000000    -2.514000000
C     5.330000000     1.439000000    -5.306000000
H     5.956000000     0.583000000    -5.543000000
C     4.633000000     2.236000000    -6.245000000
H     4.661000000     2.070000000    -7.319000000
C     3.914000000     3.356000000    -5.821000000
H     3.449000000     4.006000000    -6.557000000
C     3.713000000     3.550000000    -4.485000000
O     2.948000000     4.570000000    -4.057000000
C     1.603000000     4.479000000    -3.704000000
C     1.068000000     5.535000000    -3.020000000
H     1.748000000     6.323000000    -2.706000000
C    -0.244000000     5.412000000    -2.482000000
O    -0.790000000     6.538000000    -1.882000000
C    -1.991000000     6.528000000    -1.193000000
C    -3.176000000     6.953000000    -1.869000000
H    -3.289000000     7.153000000    -2.931000000
C    -4.392000000     7.108000000    -1.151000000
H    -5.241000000     7.492000000    -1.711000000
C    -4.390000000     6.827000000     0.257000000
H    -5.332000000     6.935000000     0.787000000
C    -3.329000000     6.168000000     0.904000000
C    -2.113000000     6.143000000     0.140000000
H    -1.206000000     5.738000000     0.581000000
C     0.820000000     1.092000000     2.267000000
H     1.536000000     0.895000000     3.061000000
C     0.446000000     0.061000000     1.398000000
H     0.844000000    -0.932000000     1.587000000
C    -0.426000000     0.416000000     0.353000000
H    -0.979000000    -0.390000000    -0.153000000
C    -0.808000000     1.688000000     0.144000000
H    -1.448000000     1.920000000    -0.703000000
C    -0.398000000     2.717000000     0.973000000
H    -0.641000000     3.732000000     0.670000000
C     0.393000000     2.420000000     2.079000000
C     0.904000000     3.569000000     3.000000000
O     0.568000000     4.723000000     2.868000000
O     1.663000000     3.241000000     3.894000000
O     0.933000000     8.596000000     7.133000000
H     1.514000000     9.333000000     6.942000000
H     1.426000000     7.824000000     6.857000000
O     2.033000000     6.040000000     1.053000000
H     1.576000000     5.519000000     1.713000000
H     1.480000000     6.812000000     0.932000000
O     3.900000000     5.401000000    -1.136000000
H     3.261000000     5.650000000    -0.468000000
H     3.405000000     4.863000000    -1.753000000
O     0.122000000     4.532000000     5.991000000
H    -0.740000000     4.132000000     5.878000000
H     0.623000000     4.242000000     5.228000000
O     3.454000000     2.958000000     5.827000000
H     3.035000000     2.629000000     6.623000000
H     2.750000000     2.984000000     5.179000000
O     1.429000000     8.458000000    -1.559000000
H     0.704000000     8.567000000    -2.174000000
H     1.023000000     8.098000000    -0.770000000
O     2.716000000     8.906000000     4.574000000
H     3.322000000     8.818000000     5.309000000
H     2.189000000     8.106000000     4.600000000
O     5.241000000     1.850000000     0.662000000
H     4.861000000     2.078000000     1.510000000
H     6.148000000     1.616000000     0.861000000
O     4.177000000     7.798000000     2.100000000
H     3.730000000     6.954000000     2.162000000
H     3.948000000     8.251000000     2.911000000
O     2.392000000     2.607000000    -0.336000000
H     3.044000000     2.099000000     0.148000000
H     1.550000000     2.276000000    -0.023000000
O    -0.568000000     6.936000000     3.332000000
H    -1.320000000     6.716000000     3.882000000
H    -0.122000000     6.101000000     3.192000000
O     2.643000000     5.885000000     4.482000000
H     3.322000000     5.287000000     4.794000000
H     2.004000000     5.318000000     4.050000000
O     1.509000000     5.355000000     8.019000000
H     1.984000000     4.568000000     8.283000000
H     1.025000000     5.092000000     7.236000000
O    -0.420000000     9.517000000     4.157000000
H     0.065000000     9.464000000     4.981000000
H    -0.372000000     8.633000000     3.794000000
O    -2.703000000     6.286000000     7.092000000
H    -3.313000000     5.550000000     7.046000000
H    -1.931000000     5.930000000     7.532000000
O     5.344000000     4.046000000     7.513000000
H     4.471000000     4.180000000     7.143000000
H     5.864000000     3.708000000     6.784000000
O     4.389000000     2.771000000     3.069000000
H     4.920000000     2.524000000     3.826000000
H     3.560000000     3.069000000     3.445000000
O     0.569000000     8.304000000     0.837000000
H     0.040000000     8.310000000     1.635000000
H     0.897000000     9.200000000     0.760000000
O     2.248000000     2.401000000     8.347000000
H     2.746000000     2.525000000     9.156000000
H     1.359000000     2.203000000     8.640000000
