215
-1476.93408
C     3.264000000    -2.671000000     3.256000000
H     3.501000000    -3.589000000     2.724000000
C     1.955000000    -2.240000000     3.461000000
C     1.694000000    -1.031000000     4.079000000
H     0.699000000    -0.602000000     4.172000000
C     0.763000000    -2.991000000     2.845000000
O     1.113000000    -4.308000000     2.393000000
H     0.419000000    -2.458000000     1.947000000
O    -0.402000000    -3.191000000     3.728000000
C    -1.677000000    -2.968000000     3.197000000
C    -2.333000000    -1.840000000     3.594000000
H    -1.903000000    -1.220000000     4.377000000
C    -3.534000000    -1.463000000     2.977000000
O    -3.976000000    -0.215000000     3.338000000
C    -4.082000000    -2.204000000     1.963000000
C    -5.339000000    -1.791000000     1.290000000
H    -5.896000000    -2.678000000     0.981000000
C    -4.894000000    -0.960000000     0.112000000
C    -4.754000000    -1.542000000    -1.162000000
H    -5.059000000    -2.579000000    -1.273000000
H    -5.943000000    -1.179000000     1.963000000
C    -3.461000000    -3.436000000     1.656000000
H    -3.906000000    -4.137000000     0.954000000
C    -2.274000000    -3.883000000     2.257000000
C    -1.624000000    -5.127000000     1.800000000
H    -2.468000000    -5.723000000     1.446000000
H    -1.231000000    -5.683000000     2.654000000
C    -0.500000000    -4.882000000     0.709000000
C    -0.769000000    -4.893000000    -0.696000000
H    -1.772000000    -5.191000000    -0.992000000
C     0.794000000    -4.502000000     1.052000000
C     1.802000000    -4.281000000     0.132000000
H     2.790000000    -3.998000000     0.486000000
C     1.495000000    -4.257000000    -1.235000000
O     2.397000000    -3.708000000    -2.047000000
C     2.219000000    -2.253000000    -2.494000000
C     3.565000000    -1.559000000    -2.655000000
C     3.750000000    -0.556000000    -3.545000000
H     2.867000000    -0.287000000    -4.119000000
C     4.583000000    -1.985000000    -1.784000000
H     4.223000000    -2.751000000    -1.103000000
O     1.529000000    -2.316000000    -3.765000000
H     1.633000000    -1.707000000    -1.740000000
C     0.195000000    -4.644000000    -1.637000000
C    -0.207000000    -4.583000000    -3.093000000
H    -0.975000000    -5.294000000    -3.405000000
H     0.639000000    -4.833000000    -3.737000000
C    -0.674000000    -3.188000000    -3.367000000
C    -2.051000000    -2.966000000    -3.400000000
H    -2.776000000    -3.741000000    -3.164000000
C     0.208000000    -2.208000000    -3.769000000
C    -0.216000000    -1.007000000    -4.314000000
H     0.479000000    -0.262000000    -4.694000000
C    -1.596000000    -0.783000000    -4.259000000
O    -2.010000000     0.542000000    -4.504000000
C    -2.169000000     1.425000000    -3.347000000
C    -1.577000000     2.807000000    -3.470000000
C    -0.422000000     2.929000000    -4.261000000
H     0.032000000     2.070000000    -4.749000000
C    -2.093000000     3.914000000    -2.814000000
H    -2.989000000     3.851000000    -2.202000000
O    -3.536000000     1.449000000    -2.978000000
H    -1.649000000     1.052000000    -2.452000000
C    -2.476000000    -1.706000000    -3.757000000
C    -3.930000000    -1.359000000    -3.599000000
H    -4.565000000    -2.224000000    -3.803000000
H    -4.185000000    -0.608000000    -4.349000000
C    -4.190000000    -0.797000000    -2.219000000
C    -3.900000000     0.541000000    -1.993000000
C    -4.064000000     1.123000000    -0.726000000
H    -3.724000000     2.139000000    -0.543000000
C    -4.568000000     0.419000000     0.299000000
O    -4.794000000     1.017000000     1.505000000
C    -3.718000000     0.835000000     2.453000000
H    -2.791000000     0.589000000     1.914000000
C    -3.404000000     2.221000000     3.113000000
C    -2.717000000     2.298000000     4.286000000
H    -2.553000000     1.337000000     4.766000000
C    -3.618000000     3.453000000     2.472000000
H    -4.000000000     3.497000000     1.455000000
C    -3.221000000     4.698000000     2.986000000
O    -3.403000000     5.875000000     2.231000000
C    -2.449000000     4.695000000     4.134000000
H    -2.165000000     5.642000000     4.586000000
C    -2.234000000     3.492000000     4.838000000
O    -1.523000000     3.524000000     6.025000000
C    -0.528000000     2.602000000     6.417000000
C     0.514000000     2.280000000     5.615000000
H     0.626000000     2.824000000     4.680000000
C    -0.527000000     2.139000000     7.708000000
H    -1.274000000     2.422000000     8.445000000
C     0.500000000     1.285000000     8.165000000
H     0.534000000     1.006000000     9.215000000
C     1.483000000     0.789000000     7.262000000
H     2.217000000     0.045000000     7.561000000
C     1.475000000     1.374000000     5.981000000
O     2.508000000     1.024000000     5.091000000
C     2.714000000    -0.207000000     4.477000000
C     4.033000000    -0.660000000     4.418000000
H     4.796000000    -0.058000000     4.906000000
C     4.299000000    -1.819000000     3.801000000
O     5.629000000    -2.162000000     3.724000000
C     6.125000000    -2.770000000     2.517000000
C     6.047000000    -1.914000000     1.410000000
H     5.587000000    -0.930000000     1.458000000
C     6.681000000    -4.045000000     2.528000000
H     6.682000000    -4.645000000     3.435000000
C     7.123000000    -4.521000000     1.316000000
H     7.523000000    -5.531000000     1.274000000
C     7.154000000    -3.724000000     0.195000000
H     7.557000000    -4.088000000    -0.747000000
C     6.635000000    -2.417000000     0.245000000
O     6.835000000    -1.636000000    -0.886000000
C     5.778000000    -1.290000000    -1.729000000
C     5.960000000    -0.302000000    -2.726000000
H     6.836000000     0.341000000    -2.712000000
C     4.880000000     0.153000000    -3.494000000
O     5.131000000     1.257000000    -4.297000000
C     4.207000000     1.970000000    -5.092000000
C     3.283000000     2.856000000    -4.605000000
H     3.227000000     3.121000000    -3.553000000
C     4.196000000     1.661000000    -6.461000000
H     4.823000000     0.835000000    -6.786000000
C     3.300000000     2.335000000    -7.306000000
H     3.240000000     2.231000000    -8.386000000
C     2.346000000     3.216000000    -6.808000000
H     1.628000000     3.784000000    -7.395000000
C     2.386000000     3.463000000    -5.450000000
O     1.460000000     4.381000000    -4.952000000
C     0.304000000     4.124000000    -4.268000000
C    -0.208000000     5.203000000    -3.598000000
H     0.397000000     6.106000000    -3.637000000
C    -1.365000000     5.075000000    -2.882000000
O    -1.722000000     6.197000000    -2.121000000
C    -2.723000000     6.200000000    -1.321000000
C    -4.090000000     6.100000000    -1.789000000
H    -4.288000000     6.060000000    -2.857000000
C    -5.156000000     5.998000000    -0.938000000
H    -6.181000000     5.806000000    -1.245000000
C    -4.943000000     5.976000000     0.428000000
H    -5.766000000     5.959000000     1.138000000
C    -3.642000000     5.968000000     0.867000000
C    -2.507000000     6.121000000     0.025000000
H    -1.481000000     5.994000000     0.359000000
C     1.533000000     2.492000000     1.929000000
H     2.291000000     2.597000000     2.702000000
C     1.121000000     1.221000000     1.504000000
H     1.630000000     0.312000000     1.817000000
C     0.088000000     1.072000000     0.583000000
H    -0.283000000     0.057000000     0.399000000
C    -0.472000000     2.212000000     0.063000000
H    -1.213000000     2.085000000    -0.723000000
C     0.019000000     3.447000000     0.386000000
H    -0.396000000     4.292000000    -0.158000000
C     0.938000000     3.633000000     1.356000000
C     1.343000000     5.009000000     1.831000000
O     0.996000000     5.918000000     1.050000000
O     2.276000000     5.103000000     2.674000000
O     4.665000000     7.418000000     5.469000000
H     5.345000000     7.685000000     6.087000000
H     4.561000000     8.171000000     4.887000000
O     1.034000000     9.043000000    -0.531000000
H     0.370000000     8.529000000    -0.073000000
H     0.935000000     8.797000000    -1.451000000
O    -0.903000000     7.764000000     4.613000000
H    -1.535000000     7.723000000     5.330000000
H    -0.296000000     8.459000000     4.868000000
O     2.818000000     5.722000000    -0.902000000
H     2.082000000     5.806000000    -0.297000000
H     3.354000000     5.021000000    -0.532000000
O     1.790000000     6.345000000     5.045000000
H     2.619000000     6.810000000     5.159000000
H     1.867000000     5.928000000     4.187000000
O     4.452000000     4.601000000     4.149000000
H     3.597000000     4.754000000     3.748000000
H     4.493000000     5.227000000     4.873000000
O     4.707000000     9.531000000     3.815000000
H     5.426000000     9.896000000     3.300000000
H     4.206000000     9.009000000     3.188000000
O     5.512000000     1.380000000     1.094000000
H     5.644000000     1.516000000     2.032000000
H     6.351000000     1.615000000     0.697000000
O     2.737000000    11.047000000     0.108000000
H     2.729000000    11.050000000     1.065000000
H     1.917000000    10.619000000    -0.137000000
O     4.454000000     5.751000000    -3.047000000
H     4.076000000     6.326000000    -3.712000000
H     3.793000000     5.715000000    -2.356000000
O     4.059000000     3.211000000    -0.131000000
H     3.173000000     2.875000000    -0.263000000
H     4.540000000     2.477000000     0.252000000
O    -0.509000000     7.880000000     1.890000000
H    -0.521000000     7.705000000     2.831000000
H    -0.046000000     7.132000000     1.513000000
O     3.144000000     8.034000000     1.793000000
H     2.800000000     7.354000000     2.372000000
H     2.595000000     7.983000000     1.010000000
O     0.658000000     9.348000000     5.841000000
H     1.086000000    10.203000000     5.873000000
H     1.338000000     8.752000000     5.527000000
O    -0.141000000     6.051000000     7.010000000
H    -0.187000000     5.144000000     6.707000000
H     0.259000000     6.526000000     6.282000000
O     5.930000000     2.377000000     3.663000000
H     5.246000000     3.045000000     3.713000000
H     6.748000000     2.862000000     3.774000000
O     5.558000000     4.763000000     1.579000000
H     5.085000000     4.788000000     2.411000000
H     4.996000000     4.249000000     0.999000000
O    -2.094000000     9.608000000     0.634000000
H    -1.630000000    10.347000000     1.025000000
H    -1.682000000     8.835000000     1.019000000
O     5.715000000     7.585000000     0.851000000
H     5.324000000     6.919000000     1.417000000
H     4.996000000     8.188000000     0.660000000
