215
-1473.41012
C     3.070000000    -2.845000000     3.297000000
H     3.339000000    -3.654000000     2.623000000
C     1.666000000    -2.556000000     3.380000000
C     1.267000000    -1.519000000     4.181000000
H     0.246000000    -1.145000000     4.197000000
C     0.583000000    -3.277000000     2.500000000
O     1.141000000    -4.416000000     1.956000000
H     0.341000000    -2.490000000     1.772000000
O    -0.548000000    -3.571000000     3.237000000
C    -1.871000000    -3.371000000     2.682000000
C    -2.501000000    -2.221000000     3.017000000
H    -2.072000000    -1.687000000     3.862000000
C    -3.569000000    -1.741000000     2.250000000
O    -4.173000000    -0.562000000     2.690000000
C    -4.086000000    -2.494000000     1.120000000
C    -5.283000000    -1.966000000     0.344000000
H    -5.774000000    -2.837000000    -0.095000000
C    -4.816000000    -0.959000000    -0.705000000
C    -4.512000000    -1.364000000    -1.989000000
H    -4.470000000    -2.444000000    -2.102000000
H    -6.048000000    -1.539000000     0.995000000
C    -3.363000000    -3.651000000     0.779000000
H    -3.583000000    -4.196000000    -0.135000000
C    -2.257000000    -4.099000000     1.538000000
C    -1.513000000    -5.268000000     0.974000000
H    -2.128000000    -5.999000000     0.446000000
H    -1.268000000    -5.998000000     1.748000000
C    -0.342000000    -4.865000000     0.057000000
C    -0.538000000    -4.704000000    -1.292000000
H    -1.551000000    -4.898000000    -1.636000000
C     0.952000000    -4.540000000     0.620000000
C     2.018000000    -4.217000000    -0.220000000
H     2.968000000    -3.944000000     0.232000000
C     1.824000000    -4.147000000    -1.622000000
O     2.863000000    -3.502000000    -2.274000000
C     2.545000000    -2.083000000    -2.494000000
C     3.730000000    -1.185000000    -2.075000000
C     3.763000000     0.151000000    -2.603000000
H     2.929000000     0.519000000    -3.196000000
C     4.747000000    -1.656000000    -1.253000000
H     4.624000000    -2.646000000    -0.821000000
O     2.063000000    -1.808000000    -3.851000000
H     1.771000000    -1.875000000    -1.741000000
C     0.544000000    -4.346000000    -2.193000000
C     0.296000000    -4.199000000    -3.676000000
H    -0.470000000    -4.929000000    -3.948000000
H     1.209000000    -4.350000000    -4.255000000
C    -0.170000000    -2.792000000    -3.959000000
C    -1.582000000    -2.573000000    -3.929000000
H    -2.273000000    -3.364000000    -3.649000000
C     0.753000000    -1.718000000    -4.150000000
C     0.215000000    -0.466000000    -4.338000000
H     0.862000000     0.408000000    -4.339000000
C    -1.126000000    -0.289000000    -4.471000000
O    -1.486000000     1.037000000    -4.598000000
C    -1.860000000     1.775000000    -3.376000000
C    -1.366000000     3.196000000    -3.481000000
C    -0.193000000     3.486000000    -4.222000000
H     0.229000000     2.617000000    -4.722000000
C    -1.841000000     4.234000000    -2.671000000
H    -2.709000000     4.002000000    -2.059000000
O    -3.342000000     1.820000000    -3.372000000
H    -1.468000000     1.257000000    -2.488000000
C    -2.077000000    -1.310000000    -4.225000000
C    -3.562000000    -0.988000000    -4.230000000
H    -4.163000000    -1.858000000    -4.503000000
H    -3.712000000    -0.205000000    -4.976000000
C    -4.054000000    -0.426000000    -2.917000000
C    -3.955000000     0.899000000    -2.557000000
C    -4.360000000     1.276000000    -1.274000000
H    -4.179000000     2.250000000    -0.826000000
C    -4.783000000     0.405000000    -0.313000000
O    -4.973000000     0.800000000     0.989000000
C    -3.872000000     0.609000000     1.897000000
H    -3.003000000     0.520000000     1.230000000
C    -3.616000000     1.877000000     2.816000000
C    -3.300000000     1.647000000     4.134000000
H    -3.302000000     0.629000000     4.515000000
C    -3.483000000     3.151000000     2.310000000
H    -3.559000000     3.382000000     1.251000000
C    -3.213000000     4.262000000     3.144000000
O    -2.815000000     5.425000000     2.587000000
C    -2.929000000     3.979000000     4.450000000
H    -2.695000000     4.789000000     5.136000000
C    -2.872000000     2.675000000     4.945000000
O    -2.398000000     2.469000000     6.225000000
C    -1.544000000     1.445000000     6.538000000
C    -0.324000000     1.265000000     5.956000000
H     0.064000000     1.951000000     5.208000000
C    -1.940000000     0.586000000     7.606000000
H    -2.936000000     0.589000000     8.041000000
C    -1.079000000    -0.421000000     8.066000000
H    -1.294000000    -1.006000000     8.957000000
C     0.158000000    -0.586000000     7.509000000
H     0.827000000    -1.374000000     7.845000000
C     0.513000000     0.232000000     6.409000000
O     1.749000000     0.177000000     5.801000000
C     2.226000000    -0.828000000     4.941000000
C     3.591000000    -1.158000000     4.891000000
H     4.370000000    -0.692000000     5.488000000
C     4.019000000    -2.137000000     3.994000000
O     5.379000000    -2.502000000     4.019000000
C     6.034000000    -2.718000000     2.837000000
C     5.969000000    -1.848000000     1.719000000
H     5.411000000    -0.916000000     1.764000000
C     6.789000000    -3.884000000     2.823000000
H     6.980000000    -4.492000000     3.703000000
C     7.459000000    -4.237000000     1.618000000
H     8.148000000    -5.071000000     1.521000000
C     7.455000000    -3.362000000     0.548000000
H     8.105000000    -3.604000000    -0.288000000
C     6.717000000    -2.193000000     0.599000000
O     6.945000000    -1.296000000    -0.417000000
C     5.870000000    -0.808000000    -1.087000000
C     5.912000000     0.500000000    -1.602000000
H     6.823000000     1.081000000    -1.483000000
C     4.835000000     0.968000000    -2.347000000
O     4.967000000     2.177000000    -3.014000000
C     4.296000000     2.646000000    -4.147000000
C     3.332000000     3.628000000    -3.968000000
H     3.193000000     4.175000000    -3.039000000
C     4.490000000     1.961000000    -5.393000000
H     5.218000000     1.162000000    -5.510000000
C     3.673000000     2.308000000    -6.488000000
H     3.799000000     1.781000000    -7.430000000
C     2.786000000     3.338000000    -6.304000000
H     2.188000000     3.661000000    -7.153000000
C     2.579000000     4.028000000    -5.096000000
O     1.599000000     4.958000000    -4.994000000
C     0.407000000     4.709000000    -4.279000000
C    -0.179000000     5.727000000    -3.562000000
H     0.199000000     6.742000000    -3.476000000
C    -1.278000000     5.506000000    -2.769000000
O    -1.810000000     6.539000000    -2.044000000
C    -2.675000000     6.395000000    -0.951000000
C    -4.002000000     6.783000000    -1.096000000
H    -4.421000000     7.195000000    -2.010000000
C    -4.932000000     6.701000000    -0.026000000
H    -5.942000000     7.072000000    -0.184000000
C    -4.492000000     6.082000000     1.231000000
H    -5.171000000     5.936000000     2.067000000
C    -3.164000000     5.844000000     1.349000000
C    -2.222000000     5.917000000     0.294000000
H    -1.227000000     5.506000000     0.449000000
C     2.407000000     0.760000000     1.920000000
H     3.464000000     0.506000000     1.931000000
C     1.646000000     0.080000000     0.986000000
H     2.188000000    -0.685000000     0.436000000
C     0.258000000     0.228000000     0.872000000
H    -0.345000000    -0.432000000     0.127000000
C    -0.278000000     1.294000000     1.623000000
H    -1.289000000     1.668000000     1.484000000
C     0.449000000     2.029000000     2.541000000
H     0.031000000     2.844000000     3.127000000
C     1.808000000     1.800000000     2.672000000
C     2.661000000     2.808000000     3.460000000
O     2.086000000     3.777000000     3.923000000
O     3.882000000     2.793000000     3.369000000
O     2.116000000     7.916000000     4.846000000
H     2.168000000     7.038000000     5.222000000
H     1.419000000     7.857000000     4.192000000
O     7.197000000     2.287000000     7.168000000
H     6.725000000     2.362000000     7.998000000
H     6.514000000     2.325000000     6.499000000
O     2.792000000     5.100000000    -0.175000000
H     3.589000000     4.614000000     0.036000000
H     2.140000000     4.423000000    -0.357000000
O     0.538000000     5.815000000     3.058000000
H     1.221000000     6.297000000     2.591000000
H     0.964000000     5.003000000     3.334000000
O     2.137000000     5.439000000     5.896000000
H     2.202000000     4.867000000     5.131000000
H     1.692000000     4.906000000     6.555000000
O     6.817000000     2.152000000     3.459000000
H     6.098000000     2.002000000     4.073000000
H     7.335000000     1.348000000     3.495000000
O     4.826000000     3.108000000     0.365000000
H     4.888000000     2.936000000     1.304000000
H     5.713000000     3.362000000     0.109000000
O     4.983000000     7.504000000     4.842000000
H     5.102000000     6.912000000     4.100000000
H     4.038000000     7.509000000     4.996000000
O     5.008000000    -0.224000000     8.048000000
H     4.502000000     0.542000000     7.774000000
H     4.409000000    -0.719000000     8.606000000
O     1.669000000     2.537000000    -0.841000000
H     2.292000000     1.814000000    -0.909000000
H     0.906000000     2.156000000    -0.406000000
O     4.454000000     6.027000000     7.575000000
H     5.078000000     6.302000000     6.903000000
H     3.678000000     5.757000000     7.084000000
O     1.195000000     4.266000000     8.103000000
H     1.623000000     4.303000000     8.958000000
H     0.292000000     4.015000000     8.297000000
O    -1.453000000     6.999000000     4.929000000
H    -1.485000000     7.684000000     4.262000000
H    -0.797000000     6.381000000     4.606000000
O     7.056000000     4.952000000     2.453000000
H     7.011000000     4.064000000     2.807000000
H     6.220000000     5.349000000     2.696000000
O     5.013000000     2.241000000     5.654000000
H     4.262000000     2.265000000     6.247000000
H     4.670000000     2.565000000     4.821000000
O     2.662000000     7.238000000     1.576000000
H     1.957000000     7.779000000     1.220000000
H     2.804000000     6.563000000     0.912000000
O     4.483000000     5.548000000     2.836000000
H     4.093000000     4.763000000     3.223000000
H     3.800000000     5.898000000     2.264000000
O     3.234000000     1.817000000     7.597000000
H     2.500000000     1.275000000     7.309000000
H     2.876000000     2.344000000     8.311000000
O     7.408000000     3.829000000    -0.052000000
H     7.304000000     4.174000000     0.835000000
H     7.935000000     3.038000000     0.058000000
