215
-1448.41142
C     2.922000000    -2.527000000     3.504000000
H     3.169000000    -3.181000000     2.671000000
C     1.546000000    -2.415000000     3.938000000
C     1.247000000    -1.441000000     4.902000000
H     0.222000000    -1.140000000     5.103000000
C     0.361000000    -3.002000000     3.227000000
O     0.847000000    -4.198000000     2.605000000
H     0.080000000    -2.308000000     2.421000000
O    -0.891000000    -3.215000000     4.002000000
C    -2.026000000    -2.754000000     3.454000000
C    -2.369000000    -1.426000000     3.611000000
H    -1.772000000    -0.987000000     4.405000000
C    -3.354000000    -0.836000000     2.840000000
O    -3.567000000     0.464000000     3.184000000
C    -4.193000000    -1.647000000     2.024000000
C    -5.354000000    -0.962000000     1.269000000
H    -5.976000000    -1.730000000     0.803000000
C    -4.899000000    -0.109000000     0.124000000
C    -4.830000000    -0.752000000    -1.123000000
H    -5.092000000    -1.803000000    -1.206000000
H    -6.023000000    -0.361000000     1.888000000
C    -3.769000000    -2.991000000     1.809000000
H    -4.441000000    -3.597000000     1.206000000
C    -2.688000000    -3.518000000     2.451000000
C    -2.093000000    -4.848000000     2.000000000
H    -2.925000000    -5.430000000     1.598000000
H    -1.918000000    -5.432000000     2.905000000
C    -0.968000000    -4.686000000     0.958000000
C    -1.295000000    -4.774000000    -0.416000000
H    -2.344000000    -4.956000000    -0.637000000
C     0.351000000    -4.403000000     1.345000000
C     1.312000000    -4.337000000     0.383000000
H     2.369000000    -4.224000000     0.614000000
C     0.982000000    -4.405000000    -0.969000000
O     1.884000000    -4.148000000    -1.925000000
C     1.893000000    -2.799000000    -2.475000000
C     3.326000000    -2.292000000    -2.568000000
C     3.490000000    -1.185000000    -3.415000000
H     2.736000000    -0.861000000    -4.127000000
C     4.383000000    -2.690000000    -1.678000000
H     4.312000000    -3.558000000    -1.028000000
O     1.248000000    -2.869000000    -3.815000000
H     1.298000000    -2.169000000    -1.798000000
C    -0.323000000    -4.605000000    -1.401000000
C    -0.714000000    -4.658000000    -2.863000000
H    -1.519000000    -5.328000000    -3.172000000
H     0.137000000    -4.971000000    -3.471000000
C    -1.059000000    -3.317000000    -3.409000000
C    -2.398000000    -2.846000000    -3.257000000
H    -3.153000000    -3.535000000    -2.886000000
C    -0.092000000    -2.462000000    -3.900000000
C    -0.451000000    -1.164000000    -4.257000000
H     0.279000000    -0.459000000    -4.646000000
C    -1.782000000    -0.733000000    -4.202000000
O    -2.046000000     0.560000000    -4.610000000
C    -2.054000000     1.537000000    -3.574000000
C    -1.157000000     2.727000000    -3.870000000
C    -0.069000000     2.596000000    -4.780000000
H     0.038000000     1.723000000    -5.418000000
C    -1.322000000     3.858000000    -3.071000000
H    -2.123000000     3.928000000    -2.338000000
O    -3.411000000     1.973000000    -3.221000000
H    -1.593000000     1.051000000    -2.702000000
C    -2.745000000    -1.582000000    -3.641000000
C    -4.125000000    -0.936000000    -3.456000000
H    -4.942000000    -1.658000000    -3.396000000
H    -4.408000000    -0.305000000    -4.301000000
C    -4.341000000    -0.095000000    -2.250000000
C    -3.974000000     1.266000000    -2.201000000
C    -4.120000000     1.916000000    -0.943000000
H    -3.988000000     2.994000000    -0.915000000
C    -4.499000000     1.188000000     0.182000000
O    -4.518000000     1.820000000     1.384000000
C    -3.326000000     1.456000000     2.117000000
H    -2.595000000     1.113000000     1.371000000
C    -2.720000000     2.695000000     2.693000000
C    -2.383000000     2.773000000     4.040000000
H    -2.716000000     1.951000000     4.668000000
C    -2.421000000     3.817000000     1.907000000
H    -2.457000000     3.802000000     0.821000000
C    -1.873000000     4.960000000     2.462000000
O    -1.550000000     6.112000000     1.822000000
C    -1.455000000     4.906000000     3.800000000
H    -1.126000000     5.870000000     4.181000000
C    -1.698000000     3.780000000     4.601000000
O    -1.409000000     3.776000000     5.931000000
C    -0.863000000     2.642000000     6.579000000
C     0.376000000     2.045000000     6.112000000
H     0.899000000     2.361000000     5.213000000
C    -1.615000000     2.004000000     7.557000000
H    -2.536000000     2.443000000     7.933000000
C    -1.166000000     0.852000000     8.170000000
H    -1.683000000     0.428000000     9.026000000
C     0.065000000     0.283000000     7.758000000
H     0.532000000    -0.525000000     8.316000000
C     0.809000000     0.865000000     6.714000000
O     2.042000000     0.317000000     6.393000000
C     2.251000000    -0.666000000     5.495000000
C     3.525000000    -0.691000000     4.931000000
H     4.274000000     0.026000000     5.256000000
C     3.879000000    -1.646000000     3.977000000
O     5.194000000    -1.651000000     3.577000000
C     5.700000000    -2.503000000     2.626000000
C     5.737000000    -2.114000000     1.284000000
H     5.123000000    -1.307000000     0.893000000
C     6.319000000    -3.655000000     2.996000000
H     6.321000000    -3.913000000     4.052000000
C     7.056000000    -4.440000000     2.100000000
H     7.467000000    -5.391000000     2.431000000
C     7.179000000    -4.027000000     0.742000000
H     7.755000000    -4.654000000     0.067000000
C     6.578000000    -2.830000000     0.376000000
O     6.619000000    -2.477000000    -0.939000000
C     5.571000000    -1.975000000    -1.690000000
C     5.721000000    -0.977000000    -2.619000000
H     6.681000000    -0.469000000    -2.630000000
C     4.742000000    -0.547000000    -3.482000000
O     4.905000000     0.520000000    -4.355000000
C     4.053000000     0.910000000    -5.361000000
C     3.387000000     2.117000000    -5.185000000
H     3.508000000     2.780000000    -4.333000000
C     3.960000000     0.204000000    -6.569000000
H     4.583000000    -0.684000000    -6.641000000
C     3.165000000     0.653000000    -7.606000000
H     3.167000000     0.209000000    -8.599000000
C     2.507000000     1.872000000    -7.395000000
H     2.058000000     2.481000000    -8.176000000
C     2.508000000     2.534000000    -6.160000000
O     1.761000000     3.677000000    -5.969000000
C     0.784000000     3.698000000    -4.965000000
C     0.556000000     4.849000000    -4.226000000
H     1.195000000     5.713000000    -4.389000000
C    -0.429000000     4.957000000    -3.296000000
O    -0.425000000     6.173000000    -2.640000000
C    -1.396000000     6.432000000    -1.681000000
C    -2.608000000     7.062000000    -1.995000000
H    -2.937000000     7.337000000    -2.994000000
C    -3.436000000     7.366000000    -0.947000000
H    -4.447000000     7.703000000    -1.160000000
C    -3.080000000     7.138000000     0.351000000
H    -3.746000000     7.293000000     1.196000000
C    -1.944000000     6.439000000     0.581000000
C    -1.059000000     6.108000000    -0.394000000
H    -0.111000000     5.644000000    -0.134000000
C     2.022000000     0.951000000     1.310000000
H     2.842000000     0.802000000     2.007000000
C     1.226000000    -0.134000000     0.940000000
H     1.415000000    -1.169000000     1.214000000
C     0.102000000     0.080000000     0.126000000
H    -0.677000000    -0.648000000    -0.075000000
C    -0.188000000     1.409000000    -0.198000000
H    -1.112000000     1.614000000    -0.731000000
C     0.689000000     2.426000000    -0.014000000
H     0.424000000     3.366000000    -0.491000000
C     1.762000000     2.217000000     0.817000000
C     2.742000000     3.247000000     1.111000000
O     2.439000000     4.405000000     0.983000000
O     3.895000000     3.067000000     1.379000000
O     1.222000000     6.871000000     5.640000000
H     0.368000000     6.951000000     5.216000000
H     1.487000000     5.966000000     5.476000000
O     7.837000000     4.906000000    -0.037000000
H     8.263000000     4.179000000    -0.491000000
H     6.911000000     4.820000000    -0.262000000
O     6.076000000     7.439000000    -2.157000000
H     5.368000000     7.753000000    -1.594000000
H     5.800000000     6.563000000    -2.425000000
O     6.329000000     0.936000000     2.822000000
H     6.134000000     0.816000000     1.893000000
H     5.709000000     0.362000000     3.273000000
O     0.069000000     8.750000000     2.865000000
H     0.738000000     8.142000000     2.550000000
H    -0.401000000     8.260000000     3.539000000
O     2.944000000     3.869000000     4.662000000
H     3.254000000     2.966000000     4.588000000
H     3.533000000     4.371000000     4.099000000
O     5.905000000     1.320000000     0.160000000
H     5.549000000     2.085000000     0.612000000
H     6.854000000     1.443000000     0.191000000
O     5.597000000     2.356000000    -2.408000000
H     4.981000000     1.796000000    -2.882000000
H     5.376000000     2.227000000    -1.486000000
O     1.638000000     6.821000000     1.979000000
H     2.533000000     6.770000000     2.315000000
H     1.461000000     5.945000000     1.637000000
O     3.032000000     6.309000000    -1.319000000
H     2.419000000     5.904000000    -1.933000000
H     2.825000000     5.907000000    -0.475000000
O     2.251000000     4.105000000     7.266000000
H     3.065000000     3.679000000     7.534000000
H     2.276000000     4.089000000     6.309000000
O     7.631000000     6.153000000     3.048000000
H     6.989000000     5.469000000     3.236000000
H     7.969000000     5.933000000     2.180000000
O     1.455000000     9.439000000    -0.035000000
H     1.773000000     8.656000000     0.414000000
H     2.223000000     9.781000000    -0.493000000
O     8.641000000     2.474000000    -1.720000000
H     7.751000000     2.622000000    -2.039000000
H     8.724000000     1.521000000    -1.677000000
O     4.612000000     8.321000000     4.052000000
H     4.586000000     7.460000000     3.635000000
H     4.702000000     8.132000000     4.986000000
O     6.066000000     3.708000000     2.933000000
H     6.499000000     2.871000000     3.102000000
H     5.438000000     3.517000000     2.237000000
O     5.186000000     4.662000000    -0.506000000
H     4.823000000     5.386000000    -1.016000000
H     4.441000000     4.079000000    -0.354000000
O     4.074000000     5.801000000     2.780000000
H     3.743000000     5.311000000     2.027000000
H     4.920000000     5.398000000     2.975000000
O     5.838000000     5.029000000    -3.527000000
H     5.746000000     4.112000000    -3.268000000
H     6.564000000     5.031000000    -4.150000000
