215
-1447.92062
C     2.320000000    -4.317000000     2.899000000
H     2.261000000    -4.947000000     2.015000000
C     1.137000000    -3.585000000     3.248000000
C     1.215000000    -2.832000000     4.389000000
H     0.322000000    -2.308000000     4.721000000
C    -0.167000000    -3.658000000     2.403000000
O    -0.191000000    -4.843000000     1.502000000
H    -0.221000000    -2.748000000     1.788000000
O    -1.405000000    -3.716000000     3.194000000
C    -2.400000000    -2.791000000     2.833000000
C    -2.405000000    -1.527000000     3.449000000
H    -1.638000000    -1.177000000     4.135000000
C    -3.372000000    -0.569000000     3.031000000
O    -3.281000000     0.692000000     3.577000000
C    -4.291000000    -0.852000000     2.019000000
C    -5.383000000     0.070000000     1.554000000
H    -6.215000000    -0.535000000     1.186000000
C    -4.937000000     0.997000000     0.464000000
C    -5.161000000     0.666000000    -0.847000000
H    -5.533000000    -0.310000000    -1.150000000
H    -5.946000000     0.560000000     2.351000000
C    -4.200000000    -2.170000000     1.414000000
H    -4.822000000    -2.395000000     0.551000000
C    -3.284000000    -3.127000000     1.815000000
C    -3.215000000    -4.472000000     1.162000000
H    -4.171000000    -4.794000000     0.744000000
H    -2.923000000    -5.228000000     1.895000000
C    -2.206000000    -4.469000000     0.037000000
C    -2.565000000    -4.236000000    -1.283000000
H    -3.619000000    -4.010000000    -1.416000000
C    -0.790000000    -4.694000000     0.229000000
C     0.110000000    -4.546000000    -0.865000000
H     1.176000000    -4.716000000    -0.735000000
C    -0.339000000    -4.191000000    -2.111000000
O     0.634000000    -3.956000000    -3.088000000
C     0.941000000    -2.557000000    -3.294000000
C     2.409000000    -2.301000000    -3.190000000
C     2.928000000    -1.443000000    -4.139000000
H     2.299000000    -1.137000000    -4.970000000
C     3.257000000    -2.714000000    -2.126000000
H     2.817000000    -3.234000000    -1.279000000
O     0.183000000    -2.032000000    -4.470000000
H     0.421000000    -2.025000000    -2.484000000
C    -1.685000000    -4.027000000    -2.302000000
C    -2.231000000    -3.701000000    -3.653000000
H    -3.221000000    -4.153000000    -3.741000000
H    -1.647000000    -4.223000000    -4.413000000
C    -2.179000000    -2.264000000    -3.910000000
C    -3.356000000    -1.555000000    -3.554000000
H    -4.220000000    -2.087000000    -3.166000000
C    -1.094000000    -1.510000000    -4.356000000
C    -1.109000000    -0.123000000    -4.484000000
H    -0.285000000     0.487000000    -4.846000000
C    -2.198000000     0.596000000    -3.993000000
O    -2.181000000     1.964000000    -4.071000000
C    -1.840000000     2.615000000    -2.878000000
C    -0.705000000     3.633000000    -3.123000000
C     0.180000000     3.527000000    -4.231000000
H     0.072000000     2.727000000    -4.959000000
C    -0.497000000     4.608000000    -2.175000000
H    -1.089000000     4.747000000    -1.274000000
O    -3.093000000     3.212000000    -2.560000000
H    -1.557000000     1.875000000    -2.115000000
C    -3.333000000    -0.132000000    -3.594000000
C    -4.572000000     0.694000000    -3.172000000
H    -5.478000000     0.119000000    -3.372000000
H    -4.704000000     1.516000000    -3.878000000
C    -4.524000000     1.355000000    -1.840000000
C    -3.838000000     2.591000000    -1.572000000
C    -3.621000000     2.934000000    -0.234000000
H    -2.945000000     3.736000000     0.050000000
C    -4.163000000     2.155000000     0.764000000
O    -3.674000000     2.491000000     2.011000000
C    -2.649000000     1.702000000     2.666000000
H    -2.081000000     1.184000000     1.880000000
C    -1.721000000     2.621000000     3.472000000
C    -1.103000000     2.138000000     4.660000000
H    -1.271000000     1.083000000     4.861000000
C    -1.327000000     3.867000000     3.011000000
H    -1.887000000     4.291000000     2.181000000
C    -0.556000000     4.705000000     3.741000000
O    -0.077000000     5.960000000     3.373000000
C     0.025000000     4.181000000     4.821000000
H     0.721000000     4.835000000     5.340000000
C    -0.175000000     2.904000000     5.312000000
O     0.525000000     2.486000000     6.415000000
C     0.541000000     1.197000000     6.793000000
C     1.454000000     0.280000000     6.287000000
H     2.230000000     0.515000000     5.562000000
C    -0.432000000     0.806000000     7.661000000
H    -1.019000000     1.524000000     8.228000000
C    -0.326000000    -0.492000000     8.181000000
H    -0.999000000    -0.808000000     8.974000000
C     0.582000000    -1.427000000     7.694000000
H     0.576000000    -2.448000000     8.068000000
C     1.446000000    -1.085000000     6.723000000
O     2.399000000    -1.906000000     6.334000000
C     2.361000000    -2.627000000     5.128000000
C     3.478000000    -3.406000000     4.808000000
H     4.373000000    -3.344000000     5.423000000
C     3.486000000    -4.211000000     3.668000000
O     4.650000000    -4.787000000     3.180000000
C     5.116000000    -4.680000000     1.865000000
C     4.807000000    -3.548000000     1.109000000
H     4.260000000    -2.726000000     1.563000000
C     5.879000000    -5.734000000     1.369000000
H     6.110000000    -6.554000000     2.044000000
C     6.397000000    -5.637000000     0.058000000
H     7.025000000    -6.450000000    -0.298000000
C     6.088000000    -4.517000000    -0.644000000
H     6.566000000    -4.443000000    -1.617000000
C     5.362000000    -3.470000000    -0.201000000
O     5.258000000    -2.325000000    -0.878000000
C     4.515000000    -2.140000000    -2.009000000
C     5.000000000    -1.192000000    -2.963000000
H     6.019000000    -0.815000000    -2.956000000
C     4.191000000    -0.856000000    -4.099000000
O     4.699000000    -0.093000000    -5.094000000
C     3.923000000     0.876000000    -5.702000000
C     3.284000000     1.990000000    -5.021000000
H     3.413000000     1.945000000    -3.942000000
C     4.012000000     0.891000000    -7.085000000
H     4.586000000     0.111000000    -7.578000000
C     3.367000000     1.904000000    -7.869000000
H     3.620000000     1.911000000    -8.926000000
C     2.686000000     2.914000000    -7.177000000
H     2.261000000     3.753000000    -7.722000000
C     2.744000000     3.032000000    -5.812000000
O     2.228000000     4.231000000    -5.283000000
C     1.261000000     4.418000000    -4.357000000
C     1.440000000     5.400000000    -3.356000000
H     2.344000000     6.003000000    -3.372000000
C     0.563000000     5.527000000    -2.321000000
O     0.841000000     6.498000000    -1.385000000
C     0.102000000     6.726000000    -0.236000000
C    -0.844000000     7.739000000    -0.323000000
H    -0.833000000     8.346000000    -1.224000000
C    -1.686000000     8.019000000     0.774000000
H    -2.469000000     8.742000000     0.560000000
C    -1.460000000     7.371000000     2.029000000
H    -2.009000000     7.626000000     2.933000000
C    -0.368000000     6.487000000     2.101000000
C     0.344000000     6.068000000     0.973000000
H     1.110000000     5.312000000     1.122000000
C     2.151000000    -0.509000000     1.234000000
H     2.899000000    -1.287000000     1.367000000
C     1.016000000    -0.825000000     0.475000000
H     0.874000000    -1.804000000     0.025000000
C     0.001000000     0.177000000     0.314000000
H    -0.850000000    -0.073000000    -0.221000000
C     0.186000000     1.493000000     0.772000000
H    -0.597000000     2.211000000     0.542000000
C     1.371000000     1.810000000     1.446000000
H     1.514000000     2.849000000     1.734000000
C     2.246000000     0.786000000     1.820000000
C     3.442000000     1.156000000     2.574000000
O     3.575000000     2.291000000     2.920000000
O     4.192000000     0.293000000     3.049000000
O     7.807000000    -0.722000000    -0.370000000
H     7.384000000    -1.568000000    -0.521000000
H     7.442000000    -0.417000000     0.461000000
O     8.371000000     3.759000000    -0.176000000
H     8.297000000     4.502000000     0.423000000
H     7.475000000     3.436000000    -0.268000000
O     3.353000000     1.542000000    -1.232000000
H     2.689000000     1.233000000    -0.615000000
H     3.470000000     2.467000000    -1.015000000
O     3.643000000     2.904000000     8.055000000
H     3.695000000     2.856000000     7.100000000
H     2.759000000     3.227000000     8.231000000
O     3.267000000     5.147000000     2.501000000
H     3.353000000     5.659000000     3.305000000
H     3.585000000     4.275000000     2.736000000
O     7.689000000     2.862000000     4.513000000
H     8.270000000     2.418000000     3.895000000
H     7.006000000     2.219000000     4.704000000
O     7.164000000    -3.011000000     3.943000000
H     6.357000000    -2.672000000     3.556000000
H     6.869000000    -3.556000000     4.672000000
O     6.528000000    -0.578000000     2.022000000
H     7.008000000    -0.421000000     2.835000000
H     5.606000000    -0.509000000     2.272000000
O     5.922000000     1.745000000    -2.716000000
H     5.191000000     1.129000000    -2.660000000
H     6.086000000     2.005000000    -1.810000000
O     7.827000000     5.681000000     1.631000000
H     7.843000000     6.572000000     1.280000000
H     7.349000000     5.758000000     2.456000000
O     5.528000000    -2.429000000     7.730000000
H     5.681000000    -1.529000000     7.443000000
H     4.689000000    -2.395000000     8.189000000
O     3.658000000     4.431000000    -0.103000000
H     3.096000000     4.500000000     0.669000000
H     4.266000000     5.166000000    -0.024000000
O     5.825000000     2.354000000     0.243000000
H     5.872000000     1.458000000     0.577000000
H     4.935000000     2.640000000     0.446000000
O     3.705000000     3.074000000     5.503000000
H     4.269000000     2.875000000     4.756000000
H     2.827000000     2.823000000     5.214000000
O     5.906000000     0.247000000     7.313000000
H     5.208000000     0.875000000     7.498000000
H     6.301000000     0.070000000     8.167000000
O     9.123000000    -0.373000000     6.360000000
H     8.233000000    -0.028000000     6.427000000
H     9.174000000    -0.734000000     5.475000000
O     6.400000000     0.413000000     4.620000000
H     5.560000000     0.324000000     4.169000000
H     6.194000000     0.263000000     5.542000000
O     6.688000000     5.800000000     4.283000000
H     5.794000000     5.889000000     4.614000000
H     6.942000000     4.907000000     4.517000000
O     3.675000000     6.340000000     5.123000000
H     3.486000000     6.590000000     6.028000000
H     3.742000000     7.172000000     4.654000000
