215
-1456.19606
C    -5.409000000     0.592000000     0.086000000
H    -5.114000000     1.325000000    -0.660000000
C    -4.724000000     0.659000000     1.299000000
C    -4.925000000    -0.410000000     2.139000000
H    -4.398000000    -0.416000000     3.089000000
C    -3.684000000     1.710000000     1.615000000
O    -3.939000000     2.883000000     0.800000000
H    -2.681000000     1.307000000     1.412000000
O    -3.713000000     2.181000000     3.012000000
C    -2.421000000     2.346000000     3.465000000
C    -1.812000000     1.216000000     4.050000000
H    -2.341000000     0.284000000     4.231000000
C    -0.426000000     1.284000000     4.315000000
O     0.244000000     0.203000000     4.901000000
C     0.338000000     2.399000000     4.079000000
C     1.753000000     2.684000000     4.466000000
H     1.974000000     3.754000000     4.468000000
C     2.746000000     2.050000000     3.510000000
C     3.381000000     2.825000000     2.588000000
H     3.147000000     3.887000000     2.577000000
H     1.869000000     2.284000000     5.476000000
C    -0.266000000     3.501000000     3.429000000
H     0.265000000     4.425000000     3.217000000
C    -1.703000000     3.524000000     3.140000000
C    -2.294000000     4.676000000     2.285000000
H    -1.833000000     5.648000000     2.475000000
H    -3.360000000     4.822000000     2.471000000
C    -2.079000000     4.389000000     0.818000000
C    -0.910000000     4.793000000     0.160000000
H    -0.264000000     5.438000000     0.750000000
C    -2.918000000     3.536000000     0.127000000
C    -2.729000000     3.221000000    -1.221000000
H    -3.464000000     2.700000000    -1.828000000
C    -1.655000000     3.832000000    -1.869000000
O    -1.419000000     3.467000000    -3.147000000
C    -0.296000000     2.540000000    -3.436000000
C    -0.685000000     1.425000000    -4.362000000
C     0.253000000     0.675000000    -5.067000000
H     1.299000000     0.964000000    -5.124000000
C    -2.003000000     0.972000000    -4.244000000
H    -2.680000000     1.510000000    -3.586000000
O     0.867000000     3.285000000    -3.923000000
H    -0.066000000     2.055000000    -2.476000000
C    -0.738000000     4.623000000    -1.185000000
C     0.442000000     5.279000000    -1.894000000
H     0.599000000     6.247000000    -1.413000000
H     0.186000000     5.397000000    -2.948000000
C     1.698000000     4.341000000    -1.901000000
C     2.532000000     4.248000000    -0.831000000
H     2.411000000     4.902000000     0.029000000
C     1.856000000     3.460000000    -2.979000000
C     2.895000000     2.508000000    -2.965000000
H     2.955000000     1.742000000    -3.733000000
C     3.721000000     2.370000000    -1.840000000
O     4.579000000     1.304000000    -1.761000000
C     4.168000000     0.161000000    -0.846000000
C     4.345000000    -1.218000000    -1.419000000
C     4.397000000    -1.376000000    -2.794000000
H     4.505000000    -0.468000000    -3.382000000
C     4.224000000    -2.333000000    -0.599000000
H     4.152000000    -2.202000000     0.478000000
O     4.830000000     0.270000000     0.449000000
H     3.095000000     0.260000000    -0.621000000
C     3.591000000     3.314000000    -0.819000000
C     4.557000000     3.218000000     0.386000000
H     4.735000000     4.222000000     0.779000000
H     5.579000000     2.894000000     0.176000000
C     4.100000000     2.267000000     1.537000000
C     4.254000000     0.865000000     1.505000000
C     3.742000000     0.076000000     2.504000000
H     4.004000000    -0.976000000     2.572000000
C     3.049000000     0.658000000     3.547000000
O     2.525000000    -0.240000000     4.532000000
C     1.170000000    -0.584000000     4.089000000
H     1.003000000    -0.317000000     3.035000000
C     0.753000000    -2.077000000     4.162000000
C    -0.590000000    -2.545000000     4.250000000
H    -1.364000000    -1.781000000     4.252000000
C     1.832000000    -2.970000000     4.048000000
H     2.834000000    -2.578000000     3.896000000
C     1.514000000    -4.324000000     4.204000000
O     2.552000000    -5.255000000     4.151000000
C     0.221000000    -4.780000000     4.286000000
H     0.015000000    -5.841000000     4.163000000
C    -0.810000000    -3.889000000     4.308000000
O    -2.043000000    -4.530000000     4.331000000
C    -3.205000000    -3.826000000     4.588000000
C    -3.992000000    -3.510000000     3.473000000
H    -3.693000000    -3.782000000     2.464000000
C    -3.608000000    -3.494000000     5.812000000
H    -2.872000000    -3.783000000     6.558000000
C    -4.860000000    -2.923000000     6.080000000
H    -5.137000000    -2.666000000     7.099000000
C    -5.596000000    -2.538000000     4.930000000
H    -6.590000000    -2.105000000     5.004000000
C    -5.215000000    -2.902000000     3.629000000
O    -6.057000000    -2.480000000     2.625000000
C    -5.789000000    -1.459000000     1.801000000
C    -6.712000000    -1.308000000     0.730000000
H    -7.477000000    -2.040000000     0.485000000
C    -6.437000000    -0.308000000    -0.183000000
O    -7.180000000    -0.199000000    -1.334000000
C    -6.508000000     0.170000000    -2.478000000
C    -5.477000000    -0.566000000    -2.989000000
H    -5.200000000    -1.494000000    -2.495000000
C    -6.917000000     1.318000000    -3.108000000
H    -7.786000000     1.824000000    -2.697000000
C    -6.368000000     1.750000000    -4.247000000
H    -6.678000000     2.606000000    -4.841000000
C    -5.137000000     1.119000000    -4.670000000
H    -4.679000000     1.516000000    -5.573000000
C    -4.730000000    -0.087000000    -4.048000000
O    -3.662000000    -0.748000000    -4.591000000
C    -2.440000000    -0.159000000    -4.928000000
C    -1.508000000    -0.820000000    -5.731000000
H    -1.843000000    -1.691000000    -6.289000000
C    -0.206000000    -0.411000000    -5.833000000
O     0.588000000    -1.059000000    -6.779000000
C     1.956000000    -1.087000000    -6.689000000
C     2.516000000    -1.761000000    -5.652000000
H     1.805000000    -2.165000000    -4.936000000
C     2.759000000    -0.486000000    -7.682000000
H     2.295000000    -0.054000000    -8.564000000
C     4.143000000    -0.698000000    -7.687000000
H     4.763000000    -0.339000000    -8.504000000
C     4.723000000    -1.387000000    -6.660000000
H     5.773000000    -1.639000000    -6.536000000
C     3.936000000    -1.880000000    -5.620000000
O     4.440000000    -2.783000000    -4.716000000
C     4.335000000    -2.643000000    -3.324000000
C     4.087000000    -3.734000000    -2.514000000
H     4.088000000    -4.719000000    -2.973000000
C     4.222000000    -3.601000000    -1.130000000
O     3.886000000    -4.596000000    -0.350000000
C     4.180000000    -4.793000000     0.979000000
C     5.504000000    -5.032000000     1.388000000
H     6.283000000    -5.104000000     0.633000000
C     5.868000000    -5.225000000     2.696000000
H     6.875000000    -5.525000000     2.977000000
C     4.850000000    -5.419000000     3.617000000
H     4.982000000    -5.649000000     4.671000000
C     3.492000000    -5.177000000     3.223000000
C     3.149000000    -4.758000000     1.934000000
H     2.114000000    -4.524000000     1.697000000
C    -1.301000000    -1.430000000    -1.131000000
H    -2.120000000    -1.704000000    -1.792000000
C    -0.987000000    -0.112000000    -0.806000000
H    -1.638000000     0.669000000    -1.192000000
C     0.165000000     0.157000000    -0.032000000
H     0.333000000     1.228000000     0.467000000
C     1.002000000    -0.904000000     0.337000000
H     1.845000000    -0.698000000     0.992000000
C     0.669000000    -2.256000000     0.002000000
H     1.234000000    -3.167000000     0.183000000
C    -0.474000000    -2.535000000    -0.779000000
C    -0.839000000    -3.919000000    -1.243000000
O    -0.199000000    -4.822000000    -0.792000000
O    -1.769000000    -4.111000000    -2.015000000
O    -4.108000000    -5.217000000    -2.032000000
H    -3.283000000    -4.733000000    -1.992000000
H    -4.480000000    -4.984000000    -2.882000000
O     0.403000000    -8.016000000    -4.418000000
H     0.078000000    -7.379000000    -5.054000000
H     0.238000000    -7.610000000    -3.567000000
O    -3.673000000    -8.347000000    -4.247000000
H    -4.436000000    -7.837000000    -3.976000000
H    -3.351000000    -8.746000000    -3.439000000
O    -2.663000000    -8.016000000     2.870000000
H    -2.435000000    -7.331000000     3.499000000
H    -2.559000000    -7.599000000     2.015000000
O    -3.606000000    -3.782000000    -5.365000000
H    -3.372000000    -2.988000000    -4.883000000
H    -4.489000000    -3.611000000    -5.694000000
O    -0.930000000    -4.684000000    -4.465000000
H    -1.737000000    -4.941000000    -4.912000000
H    -1.195000000    -4.535000000    -3.558000000
O     2.519000000    -8.757000000    -0.427000000
H     2.208000000    -7.980000000    -0.892000000
H     3.103000000    -8.414000000     0.249000000
O     1.680000000    -5.067000000    -4.615000000
H     0.728000000    -4.965000000    -4.633000000
H     1.853000000    -5.555000000    -3.810000000
O    -6.319000000    -4.212000000    -3.932000000
H    -6.312000000    -3.605000000    -4.672000000
H    -6.816000000    -4.967000000    -4.246000000
O    -1.332000000    -9.201000000    -0.864000000
H    -2.272000000    -9.238000000    -1.040000000
H    -1.057000000    -8.351000000    -1.210000000
O    -5.777000000    -6.594000000     2.394000000
H    -6.124000000    -5.782000000     2.025000000
H    -5.186000000    -6.930000000     1.720000000
O    -7.732000000    -3.855000000    -1.551000000
H    -7.054000000    -3.807000000    -2.226000000
H    -8.328000000    -3.136000000    -1.759000000
O    -4.089000000    -7.216000000     0.147000000
H    -4.452000000    -6.697000000    -0.571000000
H    -3.196000000    -6.886000000     0.253000000
O    -1.445000000    -6.299000000     0.908000000
H    -1.018000000    -5.623000000     0.382000000
H    -0.729000000    -6.862000000     1.202000000
O     2.177000000    -6.443000000    -1.745000000
H     2.667000000    -5.880000000    -1.145000000
H     1.284000000    -6.100000000    -1.719000000
O    -4.083000000    -9.358000000    -1.710000000
H    -4.745000000   -10.028000000    -1.879000000
H    -4.434000000    -8.854000000    -0.976000000
O    -1.059000000    -6.780000000    -2.452000000
H    -0.754000000    -6.077000000    -1.880000000
H    -1.831000000    -6.417000000    -2.888000000
O     1.034000000    -7.507000000     1.884000000
H     1.249000000    -8.346000000     1.475000000
H     1.432000000    -7.555000000     2.753000000
O    -5.916000000    -4.598000000     0.363000000
H    -6.645000000    -4.315000000    -0.189000000
H    -5.155000000    -4.580000000    -0.217000000
