215
-1444.49594
C     2.378000000    -3.814000000     2.657000000
H     2.013000000    -4.452000000     1.857000000
C     1.290000000    -3.207000000     3.349000000
C     1.608000000    -2.524000000     4.513000000
H     0.828000000    -1.950000000     5.006000000
C    -0.111000000    -3.274000000     2.770000000
O    -0.387000000    -4.468000000     2.084000000
H    -0.208000000    -2.488000000     2.007000000
O    -1.098000000    -3.089000000     3.821000000
C    -2.191000000    -2.309000000     3.615000000
C    -2.184000000    -0.985000000     4.130000000
H    -1.353000000    -0.706000000     4.773000000
C    -3.054000000    -0.034000000     3.589000000
O    -2.836000000     1.299000000     3.864000000
C    -4.076000000    -0.352000000     2.712000000
C    -5.068000000     0.624000000     2.137000000
H    -6.036000000     0.169000000     1.914000000
C    -4.529000000     1.327000000     0.901000000
C    -4.837000000     0.838000000    -0.403000000
H    -5.416000000    -0.066000000    -0.572000000
H    -5.272000000     1.332000000     2.942000000
C    -4.119000000    -1.691000000     2.280000000
H    -4.891000000    -1.870000000     1.536000000
C    -3.189000000    -2.651000000     2.663000000
C    -3.196000000    -4.036000000     2.000000000
H    -4.232000000    -4.329000000     1.821000000
H    -2.820000000    -4.707000000     2.775000000
C    -2.376000000    -4.135000000     0.711000000
C    -2.879000000    -3.784000000    -0.556000000
H    -3.918000000    -3.495000000    -0.689000000
C    -0.996000000    -4.373000000     0.814000000
C    -0.154000000    -4.244000000    -0.300000000
H     0.931000000    -4.296000000    -0.254000000
C    -0.720000000    -4.175000000    -1.535000000
O     0.132000000    -4.072000000    -2.536000000
C     0.448000000    -2.752000000    -3.043000000
C     1.931000000    -2.695000000    -3.367000000
C     2.421000000    -1.811000000    -4.296000000
H     1.811000000    -1.071000000    -4.806000000
C     2.831000000    -3.457000000    -2.612000000
H     2.503000000    -4.155000000    -1.846000000
O    -0.346000000    -2.586000000    -4.258000000
H     0.217000000    -2.090000000    -2.195000000
C    -2.085000000    -3.971000000    -1.669000000
C    -2.686000000    -3.694000000    -3.035000000
H    -3.763000000    -3.866000000    -3.099000000
H    -2.259000000    -4.254000000    -3.869000000
C    -2.588000000    -2.218000000    -3.376000000
C    -3.612000000    -1.353000000    -3.036000000
H    -4.513000000    -1.734000000    -2.561000000
C    -1.473000000    -1.768000000    -4.097000000
C    -1.467000000    -0.446000000    -4.521000000
H    -0.614000000    -0.056000000    -5.071000000
C    -2.469000000     0.446000000    -4.118000000
O    -2.222000000     1.740000000    -4.224000000
C    -1.871000000     2.503000000    -2.979000000
C    -0.732000000     3.439000000    -3.170000000
C     0.408000000     3.006000000    -3.879000000
H     0.486000000     2.032000000    -4.354000000
C    -0.764000000     4.726000000    -2.606000000
H    -1.591000000     5.124000000    -2.023000000
O    -2.990000000     3.192000000    -2.435000000
H    -1.513000000     1.781000000    -2.231000000
C    -3.588000000    -0.032000000    -3.372000000
C    -4.635000000     0.970000000    -2.991000000
H    -5.646000000     0.560000000    -3.010000000
H    -4.752000000     1.722000000    -3.774000000
C    -4.443000000     1.496000000    -1.557000000
C    -3.634000000     2.638000000    -1.373000000
C    -3.309000000     3.128000000    -0.171000000
H    -2.570000000     3.923000000    -0.116000000
C    -3.808000000     2.549000000     0.976000000
O    -3.301000000     2.938000000     2.241000000
C    -2.266000000     2.074000000     2.759000000
H    -1.797000000     1.458000000     1.978000000
C    -1.069000000     2.922000000     3.264000000
C    -0.301000000     2.541000000     4.360000000
H    -0.406000000     1.489000000     4.616000000
C    -0.717000000     4.081000000     2.602000000
H    -1.336000000     4.313000000     1.739000000
C     0.296000000     4.908000000     3.101000000
O     0.718000000     6.007000000     2.454000000
C     0.938000000     4.575000000     4.322000000
H     1.673000000     5.298000000     4.666000000
C     0.662000000     3.358000000     4.936000000
O     1.477000000     2.985000000     5.995000000
C     1.578000000     1.722000000     6.446000000
C     2.353000000     0.708000000     5.836000000
H     2.770000000     0.892000000     4.849000000
C     1.045000000     1.519000000     7.751000000
H     0.577000000     2.293000000     8.354000000
C     1.056000000     0.219000000     8.239000000
H     0.583000000     0.102000000     9.211000000
C     1.722000000    -0.790000000     7.615000000
H     1.708000000    -1.781000000     8.060000000
C     2.500000000    -0.533000000     6.509000000
O     3.237000000    -1.586000000     5.976000000
C     2.905000000    -2.353000000     4.919000000
C     3.981000000    -2.876000000     4.241000000
H     4.987000000    -2.606000000     4.551000000
C     3.698000000    -3.574000000     3.089000000
O     4.827000000    -3.962000000     2.402000000
C     4.638000000    -4.746000000     1.229000000
C     4.968000000    -4.250000000    -0.022000000
H     5.293000000    -3.213000000    -0.025000000
C     4.219000000    -6.076000000     1.311000000
H     4.126000000    -6.525000000     2.297000000
C     4.095000000    -6.872000000     0.099000000
H     3.815000000    -7.921000000     0.135000000
C     4.541000000    -6.329000000    -1.127000000
H     4.403000000    -6.790000000    -2.101000000
C     4.830000000    -4.995000000    -1.192000000
O     5.069000000    -4.321000000    -2.255000000
C     4.219000000    -3.413000000    -2.912000000
C     4.704000000    -2.559000000    -3.830000000
H     5.780000000    -2.522000000    -3.981000000
C     3.802000000    -1.789000000    -4.589000000
O     4.310000000    -0.892000000    -5.452000000
C     3.645000000     0.226000000    -5.935000000
C     3.599000000     1.312000000    -5.059000000
H     4.120000000     1.250000000    -4.107000000
C     3.111000000     0.187000000    -7.159000000
H     3.300000000    -0.677000000    -7.792000000
C     2.426000000     1.315000000    -7.602000000
H     2.005000000     1.292000000    -8.604000000
C     2.223000000     2.400000000    -6.746000000
H     1.548000000     3.194000000    -7.057000000
C     2.802000000     2.381000000    -5.487000000
O     2.682000000     3.465000000    -4.634000000
C     1.491000000     3.812000000    -3.983000000
C     1.479000000     5.121000000    -3.499000000
H     2.295000000     5.784000000    -3.775000000
C     0.352000000     5.559000000    -2.765000000
O     0.286000000     6.845000000    -2.321000000
C    -0.108000000     7.017000000    -0.958000000
C    -1.328000000     7.744000000    -0.729000000
H    -1.891000000     8.099000000    -1.589000000
C    -1.870000000     7.789000000     0.533000000
H    -2.729000000     8.402000000     0.793000000
C    -1.134000000     7.287000000     1.579000000
H    -1.535000000     7.339000000     2.588000000
C     0.089000000     6.568000000     1.372000000
C     0.538000000     6.312000000     0.092000000
H     1.493000000     5.813000000    -0.056000000
C     2.538000000     0.265000000    -0.408000000
H     3.276000000     0.363000000    -1.200000000
C     1.137000000     0.120000000    -0.688000000
H     0.812000000     0.219000000    -1.721000000
C     0.162000000     0.085000000     0.312000000
H    -0.937000000    -0.026000000     0.168000000
C     0.601000000     0.059000000     1.634000000
H    -0.180000000    -0.124000000     2.367000000
C     1.955000000     0.242000000     1.970000000
H     2.309000000     0.275000000     2.997000000
C     2.953000000     0.361000000     0.938000000
C     4.363000000     0.628000000     1.195000000
O     4.698000000     0.966000000     2.276000000
O     5.187000000     0.569000000     0.357000000
O     8.048000000     6.680000000     2.347000000
H     7.603000000     5.904000000     2.005000000
H     7.356000000     7.338000000     2.423000000
O     8.833000000    -3.674000000    -0.959000000
H     9.635000000    -3.647000000    -0.437000000
H     8.238000000    -3.070000000    -0.514000000
O     7.202000000     1.533000000     5.938000000
H     6.748000000     0.861000000     5.430000000
H     7.457000000     2.191000000     5.292000000
O     7.295000000    -1.371000000     0.353000000
H     6.622000000    -0.711000000     0.189000000
H     7.114000000    -1.684000000     1.239000000
O     5.944000000     1.185000000    -2.110000000
H     5.821000000     0.908000000    -1.202000000
H     5.887000000     0.376000000    -2.617000000
O     8.631000000     3.367000000    -0.768000000
H     8.686000000     4.100000000    -1.380000000
H     7.942000000     2.807000000    -1.126000000
O     4.517000000     3.570000000    -2.361000000
H     3.742000000     3.089000000    -2.652000000
H     5.131000000     2.890000000    -2.083000000
O     7.597000000    -0.893000000    -3.744000000
H     8.200000000    -1.635000000    -3.755000000
H     7.457000000    -0.685000000    -4.668000000
O     4.091000000     5.326000000     1.990000000
H     3.641000000     4.501000000     2.173000000
H     4.760000000     5.390000000     2.671000000
O     7.816000000     3.715000000     4.369000000
H     8.676000000     4.113000000     4.237000000
H     7.744000000     3.064000000     3.671000000
O     7.401000000    -1.999000000     3.172000000
H     7.180000000    -2.902000000     3.398000000
H     8.240000000    -1.842000000     3.604000000
O     8.267000000     2.362000000    -3.741000000
H     7.811000000     1.521000000    -3.706000000
H     7.609000000     2.978000000    -4.061000000
O     3.647000000     2.965000000     3.644000000
H     3.188000000     2.597000000     4.398000000
H     4.064000000     2.211000000     3.227000000
O     6.864000000     4.686000000     0.812000000
H     6.032000000     4.859000000     0.372000000
H     7.380000000     4.201000000     0.167000000
O     7.354000000     1.614000000     2.638000000
H     6.425000000     1.527000000     2.427000000
H     7.729000000     0.759000000     2.428000000
O     9.697000000     2.647000000     1.758000000
H     9.197000000     2.108000000     2.372000000
H     9.166000000     2.658000000     0.962000000
O     5.757000000    -0.071000000     4.503000000
H     6.251000000    -0.822000000     4.174000000
H     5.273000000     0.250000000     3.742000000
O     9.903000000    -0.123000000     0.239000000
H     9.038000000    -0.515000000     0.120000000
H    10.288000000    -0.610000000     0.967000000
O     4.726000000     5.915000000    -0.771000000
H     4.351000000     5.592000000     0.048000000
H     4.299000000     5.395000000    -1.452000000
