215
-1443.56870
C     3.022000000    -3.505000000     2.462000000
H     3.031000000    -3.959000000     1.475000000
C     1.873000000    -3.189000000     3.141000000
C     1.916000000    -2.492000000     4.364000000
H     0.983000000    -2.342000000     4.901000000
C     0.537000000    -3.506000000     2.583000000
O     0.513000000    -4.657000000     1.753000000
H     0.312000000    -2.644000000     1.938000000
O    -0.546000000    -3.618000000     3.606000000
C    -1.705000000    -2.836000000     3.356000000
C    -1.750000000    -1.539000000     3.770000000
H    -0.948000000    -1.183000000     4.413000000
C    -2.901000000    -0.775000000     3.523000000
O    -2.875000000     0.552000000     3.909000000
C    -3.990000000    -1.207000000     2.735000000
C    -5.111000000    -0.229000000     2.344000000
H    -6.069000000    -0.736000000     2.214000000
C    -4.693000000     0.578000000     1.168000000
C    -5.046000000     0.144000000    -0.120000000
H    -5.661000000    -0.750000000    -0.181000000
H    -5.316000000     0.446000000     3.177000000
C    -3.884000000    -2.526000000     2.216000000
H    -4.566000000    -2.972000000     1.496000000
C    -2.811000000    -3.325000000     2.621000000
C    -2.672000000    -4.744000000     1.954000000
H    -3.646000000    -5.181000000     1.721000000
H    -2.191000000    -5.400000000     2.683000000
C    -1.728000000    -4.632000000     0.628000000
C    -2.445000000    -4.508000000    -0.613000000
H    -3.513000000    -4.309000000    -0.578000000
C    -0.342000000    -4.587000000     0.625000000
C     0.341000000    -4.436000000    -0.531000000
H     1.404000000    -4.207000000    -0.537000000
C    -0.366000000    -4.230000000    -1.698000000
O     0.370000000    -3.924000000    -2.776000000
C     0.303000000    -2.516000000    -3.232000000
C     1.678000000    -1.850000000    -3.544000000
C     1.871000000    -1.160000000    -4.694000000
H     1.234000000    -1.267000000    -5.568000000
C     2.717000000    -1.953000000    -2.564000000
H     2.519000000    -2.655000000    -1.759000000
O    -0.581000000    -2.404000000    -4.327000000
H    -0.113000000    -1.935000000    -2.395000000
C    -1.765000000    -4.181000000    -1.745000000
C    -2.601000000    -3.939000000    -2.986000000
H    -3.553000000    -4.447000000    -2.819000000
H    -2.243000000    -4.559000000    -3.810000000
C    -2.783000000    -2.497000000    -3.430000000
C    -3.851000000    -1.698000000    -3.011000000
H    -4.715000000    -2.103000000    -2.492000000
C    -1.770000000    -1.721000000    -4.108000000
C    -1.820000000    -0.348000000    -4.468000000
H    -1.135000000     0.242000000    -5.072000000
C    -2.901000000     0.329000000    -3.914000000
O    -2.960000000     1.701000000    -4.151000000
C    -2.493000000     2.404000000    -2.987000000
C    -1.410000000     3.464000000    -3.241000000
C    -0.882000000     3.541000000    -4.556000000
H    -1.314000000     2.891000000    -5.313000000
C    -0.774000000     4.273000000    -2.247000000
H    -1.197000000     4.263000000    -1.245000000
O    -3.598000000     2.910000000    -2.160000000
H    -1.977000000     1.744000000    -2.274000000
C    -3.870000000    -0.321000000    -3.258000000
C    -4.991000000     0.454000000    -2.672000000
H    -5.892000000    -0.161000000    -2.635000000
H    -5.238000000     1.264000000    -3.362000000
C    -4.707000000     0.947000000    -1.247000000
C    -4.061000000     2.172000000    -1.126000000
C    -3.670000000     2.544000000     0.166000000
H    -3.037000000     3.404000000     0.369000000
C    -3.921000000     1.721000000     1.292000000
O    -3.468000000     2.196000000     2.490000000
C    -2.327000000     1.455000000     3.043000000
H    -1.777000000     0.925000000     2.252000000
C    -1.118000000     2.190000000     3.719000000
C    -0.658000000     1.794000000     4.955000000
H    -1.212000000     1.047000000     5.519000000
C    -0.381000000     3.124000000     2.984000000
H    -0.723000000     3.506000000     2.026000000
C     0.787000000     3.720000000     3.478000000
O     1.456000000     4.676000000     2.709000000
C     1.148000000     3.384000000     4.801000000
H     1.916000000     3.969000000     5.302000000
C     0.400000000     2.518000000     5.527000000
O     0.735000000     2.315000000     6.848000000
C     1.046000000     1.035000000     7.212000000
C     1.959000000     0.233000000     6.453000000
H     2.523000000     0.685000000     5.641000000
C     0.358000000     0.485000000     8.277000000
H    -0.369000000     1.041000000     8.864000000
C     0.591000000    -0.900000000     8.615000000
H     0.122000000    -1.208000000     9.546000000
C     1.441000000    -1.669000000     7.856000000
H     1.633000000    -2.636000000     8.314000000
C     2.149000000    -1.116000000     6.797000000
O     3.150000000    -1.832000000     6.257000000
C     3.144000000    -2.196000000     4.948000000
C     4.311000000    -2.550000000     4.337000000
H     5.256000000    -2.341000000     4.831000000
C     4.215000000    -3.019000000     3.040000000
O     5.421000000    -3.336000000     2.459000000
C     5.676000000    -3.216000000     1.082000000
C     5.191000000    -2.170000000     0.321000000
H     4.559000000    -1.410000000     0.773000000
C     6.307000000    -4.280000000     0.504000000
H     6.618000000    -5.154000000     1.070000000
C     6.608000000    -4.134000000    -0.846000000
H     7.082000000    -4.985000000    -1.329000000
C     6.141000000    -3.085000000    -1.643000000
H     6.282000000    -3.200000000    -2.714000000
C     5.400000000    -2.140000000    -1.032000000
O     4.824000000    -1.075000000    -1.748000000
C     3.861000000    -1.235000000    -2.722000000
C     3.994000000    -0.406000000    -3.892000000
H     4.939000000     0.129000000    -3.941000000
C     3.056000000    -0.372000000    -4.869000000
O     3.239000000     0.238000000    -6.036000000
C     2.365000000     1.089000000    -6.670000000
C     1.979000000     2.260000000    -6.086000000
H     2.251000000     2.435000000    -5.048000000
C     2.073000000     0.924000000    -8.008000000
H     2.628000000     0.105000000    -8.459000000
C     1.405000000     1.865000000    -8.763000000
H     1.257000000     1.675000000    -9.823000000
C     0.888000000     2.983000000    -8.069000000
H     0.094000000     3.574000000    -8.518000000
C     1.155000000     3.160000000    -6.718000000
O     0.670000000     4.331000000    -6.093000000
C     0.139000000     4.390000000    -4.829000000
C     0.702000000     5.245000000    -3.908000000
H     1.390000000     6.012000000    -4.255000000
C     0.265000000     5.164000000    -2.564000000
O     0.695000000     6.163000000    -1.763000000
C     0.441000000     6.231000000    -0.363000000
C    -0.475000000     7.186000000     0.042000000
H    -0.992000000     7.871000000    -0.625000000
C    -0.694000000     7.362000000     1.367000000
H    -1.191000000     8.286000000     1.654000000
C    -0.066000000     6.499000000     2.325000000
H    -0.088000000     6.674000000     3.398000000
C     0.739000000     5.459000000     1.814000000
C     1.042000000     5.315000000     0.511000000
H     1.769000000     4.568000000     0.203000000
C     1.672000000     1.241000000    -1.574000000
H     1.872000000     1.880000000    -2.430000000
C     0.430000000     0.680000000    -1.457000000
H    -0.236000000     0.612000000    -2.313000000
C     0.000000000     0.062000000    -0.281000000
H    -0.997000000    -0.425000000    -0.292000000
C     0.878000000     0.043000000     0.798000000
H     0.513000000    -0.484000000     1.675000000
C     2.147000000     0.634000000     0.744000000
H     2.761000000     0.686000000     1.639000000
C     2.581000000     1.285000000    -0.448000000
C     3.869000000     1.897000000    -0.566000000
O     4.581000000     2.017000000     0.423000000
O     4.430000000     2.072000000    -1.628000000
O     6.203000000     4.815000000     2.504000000
H     6.484000000     4.722000000     1.594000000
H     5.440000000     4.242000000     2.579000000
O     5.740000000     6.653000000    -1.119000000
H     4.868000000     6.575000000    -1.509000000
H     6.298000000     6.105000000    -1.671000000
O     8.943000000    -0.734000000     0.138000000
H     9.309000000    -0.679000000     1.021000000
H     8.038000000    -1.015000000     0.271000000
O     5.339000000     0.426000000     2.357000000
H     4.409000000     0.342000000     2.567000000
H     5.358000000     0.955000000     1.560000000
O     6.917000000     1.161000000    -1.967000000
H     7.334000000     1.889000000    -2.428000000
H     6.069000000     1.506000000    -1.691000000
O     6.846000000     2.242000000    -5.503000000
H     6.374000000     2.486000000    -6.299000000
H     7.596000000     1.736000000    -5.815000000
O     7.494000000    -0.999000000     3.240000000
H     6.759000000    -0.643000000     2.741000000
H     7.334000000    -0.715000000     4.140000000
O    10.056000000     2.110000000    -3.596000000
H     9.590000000     2.032000000    -4.429000000
H     9.565000000     1.553000000    -2.993000000
O     8.406000000    -0.852000000    -2.864000000
H     8.856000000    -1.088000000    -2.053000000
H     7.576000000    -0.472000000    -2.576000000
O     5.018000000     3.456000000     5.202000000
H     5.166000000     4.378000000     5.412000000
H     4.793000000     3.456000000     4.272000000
O     3.544000000     5.359000000    -2.542000000
H     2.642000000     5.529000000    -2.816000000
H     3.783000000     4.550000000    -2.995000000
O     6.854000000     5.111000000    -3.378000000
H     6.284000000     4.488000000    -3.828000000
H     7.561000000     5.282000000    -4.000000000
O     3.965000000     3.287000000     2.758000000
H     3.154000000     2.910000000     3.101000000
H     4.076000000     2.876000000     1.901000000
O     4.688000000     3.012000000    -4.139000000
H     4.584000000     2.619000000    -3.273000000
H     5.450000000     2.570000000    -4.513000000
O     6.690000000     3.872000000    -0.020000000
H     6.492000000     4.714000000    -0.430000000
H     5.890000000     3.358000000    -0.129000000
O     8.705000000     2.092000000     0.792000000
H     8.539000000     1.300000000     0.281000000
H     7.940000000     2.645000000     0.631000000
O     9.223000000     1.468000000     3.696000000
H     9.055000000     2.032000000     2.941000000
H     8.708000000     0.679000000     3.525000000
O     4.121000000     5.075000000    -5.583000000
H     4.044000000     4.347000000    -4.966000000
H     4.772000000     4.781000000    -6.220000000
O     3.633000000     6.623000000     3.169000000
H     4.538000000     6.676000000     3.475000000
H     3.552000000     5.739000000     2.811000000
