215
-1452.35923
C     2.485000000    -3.217000000     2.210000000
H     2.271000000    -3.605000000     1.218000000
C     1.444000000    -3.153000000     3.095000000
C     1.701000000    -2.672000000     4.417000000
H     0.925000000    -2.664000000     5.179000000
C     0.032000000    -3.399000000     2.601000000
O    -0.072000000    -4.629000000     1.869000000
H    -0.154000000    -2.685000000     1.785000000
O    -0.830000000    -3.245000000     3.734000000
C    -1.892000000    -2.402000000     3.545000000
C    -1.894000000    -1.136000000     4.099000000
H    -1.023000000    -0.862000000     4.690000000
C    -2.999000000    -0.280000000     3.941000000
O    -2.844000000     1.054000000     4.330000000
C    -4.091000000    -0.670000000     3.147000000
C    -5.212000000     0.324000000     2.826000000
H    -6.150000000    -0.231000000     2.756000000
C    -4.809000000     1.139000000     1.523000000
C    -5.103000000     0.556000000     0.268000000
H    -5.792000000    -0.285000000     0.242000000
H    -5.362000000     1.097000000     3.583000000
C    -4.130000000    -2.000000000     2.694000000
H    -4.952000000    -2.270000000     2.036000000
C    -3.008000000    -2.826000000     2.764000000
C    -2.967000000    -4.225000000     2.088000000
H    -4.017000000    -4.429000000     1.871000000
H    -2.596000000    -4.913000000     2.851000000
C    -2.287000000    -4.422000000     0.756000000
C    -2.927000000    -4.311000000    -0.462000000
H    -3.998000000    -4.131000000    -0.413000000
C    -0.875000000    -4.558000000     0.739000000
C    -0.151000000    -4.620000000    -0.442000000
H     0.933000000    -4.665000000    -0.498000000
C    -0.818000000    -4.547000000    -1.625000000
O     0.020000000    -4.490000000    -2.744000000
C     0.164000000    -3.208000000    -3.450000000
C     1.690000000    -3.030000000    -3.945000000
C     2.068000000    -2.126000000    -5.018000000
H     1.319000000    -1.473000000    -5.457000000
C     2.798000000    -3.610000000    -3.263000000
H     2.599000000    -4.238000000    -2.398000000
O    -0.818000000    -2.975000000    -4.466000000
H     0.033000000    -2.418000000    -2.696000000
C    -2.222000000    -4.292000000    -1.680000000
C    -3.016000000    -4.135000000    -2.972000000
H    -4.050000000    -4.428000000    -2.777000000
H    -2.580000000    -4.659000000    -3.825000000
C    -2.974000000    -2.652000000    -3.273000000
C    -3.869000000    -1.800000000    -2.716000000
H    -4.692000000    -2.225000000    -2.147000000
C    -1.945000000    -2.190000000    -4.058000000
C    -1.796000000    -0.803000000    -4.195000000
H    -0.981000000    -0.335000000    -4.741000000
C    -2.733000000     0.054000000    -3.643000000
O    -2.470000000     1.402000000    -3.727000000
C    -2.075000000     2.160000000    -2.615000000
C    -0.862000000     3.057000000    -2.898000000
C     0.171000000     2.614000000    -3.663000000
H     0.110000000     1.647000000    -4.156000000
C    -0.773000000     4.279000000    -2.227000000
H    -1.524000000     4.626000000    -1.522000000
O    -3.165000000     2.757000000    -1.912000000
H    -1.574000000     1.458000000    -1.932000000
C    -3.852000000    -0.429000000    -2.949000000
C    -4.866000000     0.459000000    -2.273000000
H    -5.752000000    -0.135000000    -2.035000000
H    -5.124000000     1.275000000    -2.951000000
C    -4.481000000     1.043000000    -0.925000000
C    -3.711000000     2.201000000    -0.812000000
C    -3.471000000     2.835000000     0.413000000
H    -2.886000000     3.749000000     0.472000000
C    -3.965000000     2.265000000     1.583000000
O    -3.426000000     2.697000000     2.746000000
C    -2.362000000     1.943000000     3.341000000
H    -2.005000000     1.220000000     2.593000000
C    -1.158000000     2.939000000     3.577000000
C    -0.021000000     2.512000000     4.306000000
H     0.100000000     1.453000000     4.518000000
C    -1.150000000     4.280000000     3.177000000
H    -1.985000000     4.599000000     2.559000000
C    -0.069000000     5.122000000     3.461000000
O    -0.136000000     6.382000000     3.019000000
C     1.065000000     4.712000000     4.072000000
H     1.915000000     5.354000000     4.287000000
C     1.060000000     3.363000000     4.531000000
O     2.232000000     2.831000000     5.100000000
C     2.120000000     1.812000000     5.931000000
C     2.881000000     0.713000000     5.704000000
H     3.601000000     0.708000000     4.889000000
C     1.253000000     1.834000000     7.044000000
H     0.708000000     2.770000000     7.143000000
C     1.064000000     0.703000000     7.870000000
H     0.450000000     0.738000000     8.767000000
C     1.739000000    -0.450000000     7.586000000
H     1.563000000    -1.412000000     8.060000000
C     2.607000000    -0.467000000     6.463000000
O     3.169000000    -1.712000000     6.075000000
C     2.983000000    -2.201000000     4.747000000
C     3.969000000    -2.299000000     3.814000000
H     4.932000000    -1.890000000     4.106000000
C     3.740000000    -2.750000000     2.533000000
O     4.762000000    -2.655000000     1.693000000
C     5.057000000    -3.540000000     0.690000000
C     4.961000000    -3.200000000    -0.691000000
H     4.483000000    -2.264000000    -0.968000000
C     5.527000000    -4.769000000     1.075000000
H     5.482000000    -5.068000000     2.119000000
C     6.031000000    -5.707000000     0.123000000
H     6.514000000    -6.626000000     0.446000000
C     5.737000000    -5.386000000    -1.195000000
H     5.975000000    -6.020000000    -2.045000000
C     5.209000000    -4.185000000    -1.618000000
O     5.152000000    -3.881000000    -2.971000000
C     4.066000000    -3.339000000    -3.627000000
C     4.375000000    -2.514000000    -4.675000000
H     5.412000000    -2.397000000    -4.978000000
C     3.351000000    -1.920000000    -5.430000000
O     3.669000000    -1.103000000    -6.540000000
C     3.109000000     0.122000000    -6.618000000
C     2.992000000     0.889000000    -5.469000000
H     3.324000000     0.504000000    -4.508000000
C     2.652000000     0.688000000    -7.865000000
H     2.595000000     0.079000000    -8.764000000
C     2.286000000     2.045000000    -7.966000000
H     2.088000000     2.363000000    -8.986000000
C     2.165000000     2.790000000    -6.809000000
H     1.768000000     3.802000000    -6.799000000
C     2.462000000     2.171000000    -5.528000000
O     2.447000000     2.900000000    -4.415000000
C     1.359000000     3.369000000    -3.753000000
C     1.494000000     4.607000000    -3.091000000
H     2.356000000     5.255000000    -3.222000000
C     0.369000000     5.099000000    -2.462000000
O     0.444000000     6.357000000    -1.804000000
C    -0.238000000     6.850000000    -0.674000000
C    -0.860000000     8.064000000    -0.768000000
H    -0.884000000     8.634000000    -1.694000000
C    -1.423000000     8.609000000     0.411000000
H    -1.948000000     9.560000000     0.439000000
C    -1.200000000     8.048000000     1.659000000
H    -1.598000000     8.474000000     2.577000000
C    -0.504000000     6.851000000     1.753000000
C    -0.070000000     6.241000000     0.558000000
H     0.573000000     5.366000000     0.604000000
C     2.730000000    -0.289000000    -0.679000000
H     3.422000000    -0.577000000    -1.466000000
C     1.414000000    -0.633000000    -0.824000000
H     1.135000000    -0.990000000    -1.813000000
C     0.512000000    -0.473000000     0.213000000
H    -0.514000000    -0.645000000    -0.019000000
C     0.930000000     0.032000000     1.453000000
H     0.176000000     0.035000000     2.236000000
C     2.266000000     0.379000000     1.580000000
H     2.620000000     0.846000000     2.496000000
C     3.214000000     0.168000000     0.607000000
C     4.668000000     0.432000000     0.849000000
O     5.015000000     0.651000000     2.010000000
O     5.430000000     0.289000000    -0.092000000
O     3.660000000     6.797000000     0.609000000
H     3.173000000     5.986000000     0.464000000
H     4.123000000     6.654000000     1.434000000
O     9.640000000    -2.755000000     1.582000000
H     9.102000000    -3.248000000     0.962000000
H    10.313000000    -2.343000000     1.040000000
O     4.325000000     3.056000000     2.719000000
H     3.375000000     3.019000000     2.828000000
H     4.586000000     2.146000000     2.579000000
O     6.200000000     4.839000000     0.504000000
H     6.620000000     5.668000000     0.734000000
H     5.392000000     5.095000000     0.059000000
O     7.637000000    -1.043000000    -0.525000000
H     6.811000000    -0.611000000    -0.308000000
H     8.218000000    -0.829000000     0.205000000
O     5.764000000     0.585000000    -3.793000000
H     6.021000000     1.174000000    -3.084000000
H     6.346000000    -0.169000000    -3.700000000
O     7.076000000    -0.535000000     3.282000000
H     6.281000000    -0.015000000     3.169000000
H     6.892000000    -1.357000000     2.826000000
O     7.858000000    -0.753000000    -3.052000000
H     7.976000000    -1.664000000    -3.323000000
H     7.856000000    -0.786000000    -2.095000000
O     4.259000000     5.966000000     3.126000000
H     4.100000000     6.149000000     4.053000000
H     4.253000000     5.011000000     3.066000000
O     3.148000000     4.261000000     0.057000000
H     3.584000000     3.577000000     0.565000000
H     3.210000000     3.963000000    -0.850000000
O     6.352000000     3.742000000    -3.069000000
H     5.937000000     3.885000000    -3.919000000
H     5.658000000     3.371000000    -2.524000000
O     6.938000000     4.213000000     3.474000000
H     5.986000000     4.176000000     3.564000000
H     7.083000000     4.417000000     2.550000000
O     6.407000000     2.030000000     6.947000000
H     5.999000000     2.892000000     6.862000000
H     6.718000000     1.824000000     6.066000000
O     4.354000000     2.536000000    -1.874000000
H     4.740000000     1.802000000    -1.396000000
H     3.658000000     2.140000000    -2.399000000
O     7.314000000     2.339000000     0.795000000
H     6.554000000     1.758000000     0.758000000
H     6.940000000     3.220000000     0.808000000
O     9.206000000     0.606000000     1.467000000
H     8.527000000     1.171000000     1.100000000
H     8.792000000     0.197000000     2.227000000
O     7.925000000     1.969000000     4.510000000
H     7.966000000     2.705000000     3.899000000
H     7.776000000     1.205000000     3.953000000
O    11.136000000    -1.241000000     0.126000000
H    11.481000000    -1.276000000    -0.766000000
H    10.520000000    -0.508000000     0.116000000
O     8.239000000    -3.663000000    -0.573000000
H     7.524000000    -4.148000000    -0.986000000
H     8.146000000    -2.770000000    -0.904000000
