215
-1468.07842
C     2.538000000    -4.101000000     2.709000000
H     2.442000000    -4.920000000     2.001000000
C     1.504000000    -3.374000000     3.247000000
C     1.708000000    -2.368000000     4.174000000
H     0.907000000    -1.793000000     4.631000000
C     0.136000000    -3.516000000     2.643000000
O    -0.083000000    -4.702000000     1.933000000
H     0.012000000    -2.647000000     1.981000000
O    -0.852000000    -3.322000000     3.607000000
C    -2.043000000    -2.685000000     3.281000000
C    -2.101000000    -1.413000000     3.710000000
H    -1.424000000    -1.055000000     4.481000000
C    -3.170000000    -0.572000000     3.359000000
O    -3.198000000     0.708000000     3.808000000
C    -4.087000000    -1.066000000     2.379000000
C    -5.238000000    -0.176000000     1.966000000
H    -6.110000000    -0.767000000     1.679000000
C    -4.803000000     0.700000000     0.794000000
C    -5.036000000     0.331000000    -0.592000000
H    -5.400000000    -0.684000000    -0.725000000
H    -5.587000000     0.416000000     2.814000000
C    -3.967000000    -2.325000000     1.905000000
H    -4.681000000    -2.714000000     1.183000000
C    -2.965000000    -3.207000000     2.345000000
C    -2.813000000    -4.582000000     1.740000000
H    -3.754000000    -4.925000000     1.306000000
H    -2.539000000    -5.235000000     2.571000000
C    -1.897000000    -4.560000000     0.533000000
C    -2.431000000    -4.342000000    -0.739000000
H    -3.513000000    -4.405000000    -0.814000000
C    -0.518000000    -4.596000000     0.671000000
C     0.332000000    -4.325000000    -0.394000000
H     1.395000000    -4.427000000    -0.189000000
C    -0.161000000    -4.031000000    -1.699000000
O     0.690000000    -3.745000000    -2.709000000
C     0.917000000    -2.409000000    -3.156000000
C     2.367000000    -2.059000000    -3.416000000
C     2.654000000    -0.906000000    -4.146000000
H     1.862000000    -0.453000000    -4.738000000
C     3.339000000    -2.625000000    -2.579000000
H     3.122000000    -3.499000000    -1.970000000
O     0.062000000    -2.327000000    -4.334000000
H     0.458000000    -1.733000000    -2.420000000
C    -1.567000000    -4.179000000    -1.875000000
C    -2.207000000    -3.850000000    -3.208000000
H    -3.220000000    -4.254000000    -3.261000000
H    -1.605000000    -4.420000000    -3.919000000
C    -2.221000000    -2.374000000    -3.577000000
C    -3.421000000    -1.742000000    -3.320000000
H    -4.240000000    -2.279000000    -2.848000000
C    -1.143000000    -1.694000000    -4.075000000
C    -1.185000000    -0.320000000    -4.274000000
H    -0.344000000     0.293000000    -4.589000000
C    -2.357000000     0.318000000    -4.036000000
O    -2.376000000     1.694000000    -4.100000000
C    -2.089000000     2.514000000    -2.926000000
C    -0.960000000     3.523000000    -3.163000000
C    -0.247000000     3.524000000    -4.340000000
H    -0.432000000     2.741000000    -5.071000000
C    -0.550000000     4.376000000    -2.148000000
H    -1.161000000     4.308000000    -1.251000000
O    -3.336000000     3.023000000    -2.412000000
H    -1.679000000     1.889000000    -2.118000000
C    -3.442000000    -0.311000000    -3.475000000
C    -4.656000000     0.530000000    -3.046000000
H    -5.498000000    -0.127000000    -3.275000000
H    -4.896000000     1.348000000    -3.728000000
C    -4.565000000     1.091000000    -1.643000000
C    -3.892000000     2.320000000    -1.383000000
C    -3.708000000     2.738000000    -0.067000000
H    -3.217000000     3.677000000     0.176000000
C    -4.108000000     1.895000000     0.997000000
O    -3.810000000     2.349000000     2.243000000
C    -2.734000000     1.713000000     2.917000000
H    -2.085000000     1.305000000     2.128000000
C    -1.775000000     2.674000000     3.619000000
C    -0.995000000     2.208000000     4.698000000
H    -1.069000000     1.167000000     4.999000000
C    -1.529000000     3.953000000     3.117000000
H    -2.068000000     4.236000000     2.216000000
C    -0.579000000     4.797000000     3.699000000
O    -0.464000000     6.095000000     3.342000000
C     0.124000000     4.359000000     4.888000000
H     0.742000000     5.079000000     5.419000000
C    -0.087000000     3.100000000     5.337000000
O     0.561000000     2.646000000     6.500000000
C     0.907000000     1.397000000     6.736000000
C     1.815000000     0.691000000     5.902000000
H     2.149000000     1.146000000     4.973000000
C     0.405000000     0.735000000     7.837000000
H    -0.279000000     1.240000000     8.514000000
C     0.835000000    -0.518000000     8.223000000
H     0.514000000    -0.976000000     9.155000000
C     1.729000000    -1.196000000     7.424000000
H     2.083000000    -2.151000000     7.801000000
C     2.271000000    -0.565000000     6.329000000
O     3.220000000    -1.261000000     5.665000000
C     2.979000000    -2.169000000     4.665000000
C     4.074000000    -2.903000000     4.153000000
H     5.063000000    -2.695000000     4.555000000
C     3.861000000    -3.873000000     3.208000000
O     4.883000000    -4.537000000     2.713000000
C     5.104000000    -4.640000000     1.365000000
C     5.177000000    -3.505000000     0.565000000
H     5.083000000    -2.530000000     1.037000000
C     5.287000000    -5.874000000     0.758000000
H     5.378000000    -6.799000000     1.321000000
C     5.586000000    -5.932000000    -0.637000000
H     5.654000000    -6.856000000    -1.206000000
C     5.536000000    -4.802000000    -1.446000000
H     5.834000000    -4.847000000    -2.491000000
C     5.448000000    -3.580000000    -0.762000000
O     5.400000000    -2.311000000    -1.412000000
C     4.606000000    -2.080000000    -2.513000000
C     4.945000000    -0.940000000    -3.246000000
H     5.935000000    -0.495000000    -3.196000000
C     3.991000000    -0.349000000    -4.105000000
O     4.331000000     0.701000000    -4.879000000
C     3.445000000     1.333000000    -5.758000000
C     2.870000000     2.499000000    -5.330000000
H     3.059000000     2.852000000    -4.320000000
C     3.148000000     0.793000000    -7.002000000
H     3.646000000    -0.126000000    -7.303000000
C     2.311000000     1.518000000    -7.877000000
H     2.179000000     1.139000000    -8.887000000
C     1.816000000     2.781000000    -7.398000000
H     1.195000000     3.398000000    -8.042000000
C     2.181000000     3.345000000    -6.173000000
O     1.499000000     4.477000000    -5.704000000
C     0.754000000     4.488000000    -4.582000000
C     1.105000000     5.335000000    -3.561000000
H     1.912000000     6.042000000    -3.733000000
C     0.550000000     5.240000000    -2.306000000
O     0.959000000     6.072000000    -1.281000000
C     0.068000000     6.439000000    -0.306000000
C    -1.088000000     7.157000000    -0.634000000
H    -1.322000000     7.317000000    -1.683000000
C    -1.955000000     7.595000000     0.328000000
H    -2.859000000     8.138000000     0.068000000
C    -1.781000000     7.172000000     1.665000000
H    -2.483000000     7.511000000     2.422000000
C    -0.616000000     6.507000000     2.017000000
C     0.334000000     6.178000000     1.080000000
H     1.289000000     5.731000000     1.345000000
C     2.522000000     0.010000000     0.859000000
H     3.499000000    -0.463000000     0.794000000
C     1.371000000    -0.531000000     0.329000000
H     1.644000000    -1.418000000    -0.236000000
C     0.167000000     0.236000000     0.317000000
H    -0.713000000    -0.250000000    -0.179000000
C     0.093000000     1.437000000     0.971000000
H    -0.846000000     1.985000000     0.976000000
C     1.250000000     1.958000000     1.608000000
H     1.177000000     2.954000000     2.038000000
C     2.479000000     1.238000000     1.486000000
C     3.846000000     1.756000000     2.059000000
O     4.042000000     2.891000000     2.440000000
O     4.775000000     0.954000000     2.016000000
O     6.060000000     6.543000000     1.012000000
H     5.134000000     6.785000000     1.013000000
H     6.116000000     5.805000000     1.618000000
O     3.275000000     7.333000000     0.062000000
H     2.948000000     6.461000000    -0.159000000
H     2.695000000     7.933000000    -0.406000000
O     2.727000000     5.025000000     3.406000000
H     2.786000000     4.848000000     4.344000000
H     3.080000000     4.237000000     2.991000000
O     6.768000000    -0.526000000     3.063000000
H     7.187000000    -0.004000000     3.748000000
H     5.969000000    -0.044000000     2.850000000
O     7.117000000     3.557000000    -3.351000000
H     6.430000000     3.157000000    -2.818000000
H     6.804000000     3.468000000    -4.251000000
O     6.241000000     3.270000000     7.862000000
H     6.281000000     3.625000000     6.974000000
H     5.992000000     4.015000000     8.407000000
O     7.501000000     1.788000000     4.953000000
H     7.743000000     1.469000000     5.823000000
H     6.794000000     2.413000000     5.115000000
O     5.206000000     3.205000000     4.884000000
H     4.956000000     3.165000000     3.961000000
H     4.483000000     3.667000000     5.309000000
O     8.973000000     4.100000000     3.198000000
H     8.158000000     4.028000000     3.696000000
H     8.704000000     4.450000000     2.349000000
O     4.698000000     2.583000000    -1.792000000
H     5.277000000     1.911000000    -1.433000000
H     3.823000000     2.200000000    -1.735000000
O     3.997000000     7.412000000     2.743000000
H     3.277000000     6.951000000     3.175000000
H     3.795000000     7.350000000     1.810000000
O     3.401000000     4.554000000     6.380000000
H     3.692000000     5.455000000     6.243000000
H     3.076000000     4.541000000     7.280000000
O     8.491000000     0.009000000     0.462000000
H     7.603000000     0.240000000     0.188000000
H     8.647000000    -0.850000000     0.071000000
O     3.374000000     4.413000000    -0.120000000
H     3.956000000     4.050000000    -0.788000000
H     3.498000000     3.844000000     0.640000000
O     6.389000000     3.944000000     2.040000000
H     6.820000000     3.097000000     1.927000000
H     5.459000000     3.731000000     2.116000000
O     4.649000000     1.198000000     8.359000000
H     4.412000000     0.946000000     7.467000000
H     5.017000000     2.077000000     8.270000000
O     5.681000000     0.559000000    -0.474000000
H     5.396000000     0.527000000     0.439000000
H     5.675000000    -0.354000000    -0.759000000
O     4.115000000     5.087000000    -3.247000000
H     4.565000000     4.259000000    -3.083000000
H     4.568000000     5.720000000    -2.690000000
O     7.841000000    -3.075000000     2.318000000
H     7.529000000    -2.220000000     2.615000000
H     7.596000000    -3.677000000     3.021000000
