215
-1436.22447
C     1.666000000    -4.273000000     3.004000000
H     1.699000000    -4.712000000     2.010000000
C     0.456000000    -3.769000000     3.466000000
C     0.399000000    -3.118000000     4.691000000
H    -0.525000000    -2.638000000     5.002000000
C    -0.699000000    -3.688000000     2.429000000
O    -0.727000000    -4.767000000     1.453000000
H    -0.568000000    -2.736000000     1.895000000
O    -1.982000000    -3.647000000     3.146000000
C    -2.813000000    -2.691000000     2.615000000
C    -2.766000000    -1.461000000     3.118000000
H    -2.122000000    -1.201000000     3.954000000
C    -3.524000000    -0.460000000     2.488000000
O    -3.469000000     0.800000000     3.066000000
C    -4.367000000    -0.758000000     1.449000000
C    -5.294000000     0.303000000     0.743000000
H    -6.099000000    -0.195000000     0.198000000
C    -4.640000000     1.212000000    -0.240000000
C    -4.612000000     0.823000000    -1.624000000
H    -4.953000000    -0.202000000    -1.739000000
H    -5.831000000     0.949000000     1.441000000
C    -4.522000000    -2.056000000     0.999000000
H    -5.050000000    -2.245000000     0.068000000
C    -3.593000000    -2.985000000     1.424000000
C    -3.486000000    -4.320000000     0.709000000
H    -4.358000000    -4.590000000     0.110000000
H    -3.240000000    -5.081000000     1.452000000
C    -2.336000000    -4.366000000    -0.279000000
C    -2.560000000    -3.916000000    -1.582000000
H    -3.599000000    -3.716000000    -1.831000000
C    -1.045000000    -4.564000000     0.129000000
C     0.000000000    -4.365000000    -0.726000000
H     1.036000000    -4.577000000    -0.475000000
C    -0.237000000    -4.040000000    -2.065000000
O     0.802000000    -3.945000000    -2.916000000
C     1.186000000    -2.552000000    -3.203000000
C     2.695000000    -2.345000000    -3.141000000
C     3.370000000    -1.268000000    -3.737000000
H     2.888000000    -0.579000000    -4.425000000
C     3.435000000    -3.162000000    -2.295000000
H     2.929000000    -3.957000000    -1.754000000
O     0.612000000    -2.215000000    -4.562000000
H     0.716000000    -1.945000000    -2.415000000
C    -1.538000000    -3.816000000    -2.506000000
C    -1.876000000    -3.321000000    -3.909000000
H    -2.881000000    -3.691000000    -4.122000000
H    -1.204000000    -3.831000000    -4.603000000
C    -1.716000000    -1.824000000    -4.217000000
C    -2.748000000    -0.883000000    -3.953000000
H    -3.745000000    -1.207000000    -3.666000000
C    -0.470000000    -1.380000000    -4.606000000
C    -0.250000000    -0.040000000    -4.740000000
H     0.754000000     0.376000000    -4.745000000
C    -1.318000000     0.900000000    -4.481000000
O    -0.933000000     2.136000000    -4.220000000
C    -0.981000000     2.849000000    -2.971000000
C     0.176000000     3.901000000    -2.912000000
C     1.375000000     3.737000000    -3.681000000
H     1.443000000     2.909000000    -4.382000000
C     0.136000000     4.904000000    -1.914000000
H    -0.704000000     5.113000000    -1.256000000
O    -2.321000000     3.443000000    -2.792000000
H    -0.881000000     2.056000000    -2.215000000
C    -2.575000000     0.439000000    -4.213000000
C    -3.791000000     1.362000000    -4.049000000
H    -4.680000000     0.763000000    -4.258000000
H    -3.782000000     2.306000000    -4.598000000
C    -3.982000000     1.686000000    -2.529000000
C    -3.288000000     2.849000000    -2.038000000
C    -3.297000000     3.179000000    -0.682000000
H    -2.712000000     4.072000000    -0.477000000
C    -3.913000000     2.349000000     0.215000000
O    -3.734000000     2.604000000     1.634000000
C    -2.755000000     1.813000000     2.252000000
H    -2.099000000     1.319000000     1.521000000
C    -1.852000000     2.656000000     3.228000000
C    -1.155000000     1.989000000     4.277000000
H    -1.207000000     0.911000000     4.402000000
C    -1.534000000     3.990000000     2.918000000
H    -2.043000000     4.453000000     2.077000000
C    -0.598000000     4.654000000     3.652000000
O    -0.203000000     5.869000000     3.394000000
C    -0.005000000     4.041000000     4.763000000
H     0.672000000     4.542000000     5.450000000
C    -0.357000000     2.734000000     5.123000000
O     0.229000000     2.109000000     6.260000000
C    -0.031000000     0.868000000     6.680000000
C     0.699000000    -0.293000000     6.229000000
H     1.401000000    -0.235000000     5.401000000
C    -0.862000000     0.709000000     7.804000000
H    -1.366000000     1.552000000     8.270000000
C    -1.085000000    -0.517000000     8.335000000
H    -1.856000000    -0.662000000     9.088000000
C    -0.175000000    -1.492000000     8.043000000
H    -0.203000000    -2.447000000     8.563000000
C     0.656000000    -1.464000000     6.969000000
O     1.435000000    -2.537000000     6.767000000
C     1.552000000    -3.107000000     5.527000000
C     2.746000000    -3.578000000     5.080000000
H     3.654000000    -3.370000000     5.640000000
C     2.831000000    -4.253000000     3.836000000
O     4.054000000    -4.644000000     3.353000000
C     4.264000000    -5.072000000     2.087000000
C     4.850000000    -4.186000000     1.154000000
H     5.025000000    -3.168000000     1.493000000
C     3.763000000    -6.285000000     1.698000000
H     3.294000000    -6.884000000     2.475000000
C     3.877000000    -6.587000000     0.331000000
H     3.548000000    -7.558000000    -0.032000000
C     4.503000000    -5.713000000    -0.572000000
H     4.707000000    -5.917000000    -1.620000000
C     4.986000000    -4.495000000    -0.157000000
O     5.575000000    -3.603000000    -1.121000000
C     4.848000000    -2.927000000    -2.083000000
C     5.502000000    -1.880000000    -2.744000000
H     6.535000000    -1.681000000    -2.469000000
C     4.756000000    -1.001000000    -3.565000000
O     5.384000000     0.095000000    -4.015000000
C     4.816000000     1.075000000    -4.831000000
C     4.446000000     2.316000000    -4.253000000
H     4.537000000     2.341000000    -3.170000000
C     4.675000000     0.930000000    -6.206000000
H     4.943000000     0.010000000    -6.720000000
C     4.049000000     1.925000000    -7.016000000
H     3.879000000     1.727000000    -8.072000000
C     3.673000000     3.157000000    -6.372000000
H     3.231000000     3.994000000    -6.907000000
C     3.928000000     3.366000000    -5.012000000
O     3.556000000     4.591000000    -4.375000000
C     2.378000000     4.713000000    -3.624000000
C     2.201000000     5.804000000    -2.752000000
H     2.962000000     6.580000000    -2.727000000
C     1.111000000     5.861000000    -1.854000000
O     0.989000000     6.991000000    -1.087000000
C     0.106000000     7.083000000    -0.014000000
C    -1.190000000     7.563000000    -0.177000000
H    -1.457000000     7.975000000    -1.147000000
C    -2.177000000     7.446000000     0.837000000
H    -3.164000000     7.750000000     0.497000000
C    -1.815000000     6.987000000     2.123000000
H    -2.436000000     6.926000000     3.013000000
C    -0.498000000     6.547000000     2.240000000
C     0.434000000     6.528000000     1.223000000
H     1.445000000     6.201000000     1.451000000
C     1.959000000    -0.774000000     1.632000000
H     2.378000000    -1.620000000     2.171000000
C     1.025000000    -1.027000000     0.609000000
H     0.960000000    -2.023000000     0.179000000
C     0.237000000     0.041000000     0.131000000
H    -0.480000000    -0.182000000    -0.599000000
C     0.383000000     1.350000000     0.651000000
H    -0.325000000     2.124000000     0.365000000
C     1.271000000     1.614000000     1.645000000
H     1.209000000     2.534000000     2.220000000
C     2.058000000     0.541000000     2.170000000
C     3.042000000     0.865000000     3.269000000
O     3.240000000     2.024000000     3.546000000
O     3.501000000    -0.088000000     3.886000000
O     3.499000000     6.918000000     2.547000000
H     3.360000000     6.016000000     2.837000000
H     3.833000000     7.370000000     3.322000000
O     3.484000000     4.680000000     4.004000000
H     3.428000000     3.725000000     3.969000000
H     3.215000000     4.903000000     4.895000000
O     5.367000000    -1.683000000     5.060000000
H     6.056000000    -1.339000000     4.492000000
H     4.567000000    -1.259000000     4.749000000
O     6.165000000     0.573000000     6.467000000
H     5.428000000     0.875000000     6.997000000
H     5.985000000    -0.354000000     6.311000000
O     7.844000000     2.525000000     7.460000000
H     7.264000000     1.837000000     7.134000000
H     7.285000000     3.064000000     8.019000000
O     2.898000000     2.502000000     6.255000000
H     2.745000000     2.400000000     5.315000000
H     2.092000000     2.896000000     6.587000000
O     7.315000000     2.269000000     1.901000000
H     7.860000000     3.048000000     2.014000000
H     6.905000000     2.137000000     2.756000000
O     4.070000000     4.520000000     7.944000000
H     3.765000000     3.748000000     7.468000000
H     3.280000000     5.038000000     8.094000000
O     6.514000000     1.306000000    -0.751000000
H     5.589000000     1.069000000    -0.695000000
H     6.676000000     1.830000000     0.033000000
O     4.666000000     1.428000000     8.583000000
H     3.907000000     1.511000000     8.005000000
H     4.339000000     0.938000000     9.338000000
O     4.200000000    -3.368000000     8.092000000
H     3.446000000    -2.920000000     7.708000000
H     4.652000000    -2.689000000     8.593000000
O     5.883000000     1.791000000     3.995000000
H     5.000000000     1.990000000     3.683000000
H     5.749000000     1.407000000     4.862000000
O     3.830000000     0.752000000    -0.459000000
H     3.064000000     1.298000000    -0.280000000
H     3.623000000    -0.090000000    -0.053000000
O     6.871000000     4.602000000     4.216000000
H     6.519000000     3.728000000     4.387000000
H     6.515000000     4.841000000     3.361000000
O     7.551000000    -0.615000000     3.697000000
H     7.931000000    -0.404000000     4.550000000
H     7.277000000     0.231000000     3.342000000
O     8.785000000    -0.567000000     6.133000000
H     8.054000000    -0.302000000     6.691000000
H     8.903000000    -1.499000000     6.318000000
O     8.657000000     0.135000000     0.269000000
H     8.505000000     0.999000000     0.650000000
H     8.118000000     0.124000000    -0.522000000
O     5.899000000     5.675000000     1.767000000
H     5.328000000     6.415000000     1.560000000
H     5.393000000     4.904000000     1.510000000
O     7.833000000    -2.569000000     1.760000000
H     8.142000000    -2.257000000     0.909000000
H     7.814000000    -1.785000000     2.310000000
