215
-1462.14364
C     2.913000000    -4.155000000     2.326000000
H     2.891000000    -5.080000000     1.756000000
C     1.753000000    -3.455000000     2.623000000
C     2.003000000    -2.358000000     3.436000000
H     1.171000000    -1.738000000     3.760000000
C     0.405000000    -3.734000000     2.010000000
O     0.354000000    -4.900000000     1.250000000
H     0.215000000    -2.838000000     1.402000000
O    -0.601000000    -3.783000000     2.970000000
C    -1.883000000    -3.378000000     2.702000000
C    -2.134000000    -2.137000000     3.351000000
H    -1.393000000    -1.772000000     4.059000000
C    -3.333000000    -1.452000000     3.055000000
O    -3.621000000    -0.264000000     3.650000000
C    -4.192000000    -1.950000000     2.100000000
C    -5.454000000    -1.174000000     1.760000000
H    -6.155000000    -1.908000000     1.358000000
C    -5.160000000    -0.093000000     0.730000000
C    -5.096000000    -0.408000000    -0.598000000
H    -5.215000000    -1.446000000    -0.897000000
H    -5.906000000    -0.755000000     2.661000000
C    -3.899000000    -3.118000000     1.444000000
H    -4.654000000    -3.463000000     0.742000000
C    -2.810000000    -3.876000000     1.770000000
C    -2.359000000    -5.084000000     0.912000000
H    -3.341000000    -5.493000000     0.668000000
H    -1.931000000    -5.913000000     1.479000000
C    -1.425000000    -4.717000000    -0.221000000
C    -1.909000000    -4.449000000    -1.489000000
H    -2.965000000    -4.563000000    -1.721000000
C    -0.062000000    -4.749000000    -0.033000000
C     0.808000000    -4.384000000    -1.010000000
H     1.847000000    -4.405000000    -0.690000000
C     0.319000000    -4.067000000    -2.280000000
O     1.223000000    -3.582000000    -3.194000000
C     1.214000000    -2.082000000    -3.264000000
C     2.610000000    -1.491000000    -3.235000000
C     2.901000000    -0.383000000    -3.993000000
H     2.130000000     0.225000000    -4.460000000
C     3.590000000    -2.091000000    -2.404000000
H     3.304000000    -2.960000000    -1.816000000
O     0.594000000    -1.792000000    -4.496000000
H     0.538000000    -1.682000000    -2.493000000
C    -1.062000000    -4.036000000    -2.548000000
C    -1.516000000    -3.712000000    -3.914000000
H    -2.424000000    -4.287000000    -4.107000000
H    -0.683000000    -4.030000000    -4.545000000
C    -1.738000000    -2.188000000    -3.950000000
C    -2.978000000    -1.706000000    -3.553000000
H    -3.752000000    -2.371000000    -3.179000000
C    -0.695000000    -1.323000000    -4.311000000
C    -0.922000000     0.069000000    -4.209000000
H    -0.096000000     0.775000000    -4.237000000
C    -2.132000000     0.563000000    -3.763000000
O    -2.343000000     1.873000000    -3.633000000
C    -2.238000000     2.426000000    -2.363000000
C    -1.384000000     3.687000000    -2.328000000
C    -0.217000000     3.739000000    -3.059000000
H     0.230000000     2.809000000    -3.401000000
C    -1.805000000     4.905000000    -1.715000000
H    -2.828000000     5.025000000    -1.366000000
O    -3.517000000     2.670000000    -1.851000000
H    -1.709000000     1.718000000    -1.708000000
C    -3.174000000    -0.331000000    -3.526000000
C    -4.514000000     0.171000000    -3.050000000
H    -5.373000000    -0.500000000    -3.123000000
H    -4.777000000     0.985000000    -3.729000000
C    -4.577000000     0.517000000    -1.529000000
C    -4.142000000     1.757000000    -1.035000000
C    -4.244000000     2.069000000     0.269000000
H    -3.868000000     3.038000000     0.585000000
C    -4.858000000     1.224000000     1.173000000
O    -4.514000000     1.517000000     2.465000000
C    -3.321000000     0.920000000     2.984000000
H    -2.710000000     0.611000000     2.123000000
C    -2.446000000     1.954000000     3.767000000
C    -1.500000000     1.565000000     4.755000000
H    -1.494000000     0.550000000     5.145000000
C    -2.330000000     3.283000000     3.318000000
H    -3.139000000     3.695000000     2.721000000
C    -1.453000000     4.187000000     3.896000000
O    -1.434000000     5.499000000     3.511000000
C    -0.577000000     3.832000000     4.907000000
H     0.042000000     4.566000000     5.416000000
C    -0.592000000     2.490000000     5.335000000
O     0.175000000     2.123000000     6.420000000
C     0.948000000     1.037000000     6.493000000
C     1.821000000     0.695000000     5.479000000
H     1.706000000     1.218000000     4.533000000
C     1.096000000     0.436000000     7.729000000
H     0.495000000     0.806000000     8.556000000
C     2.005000000    -0.655000000     7.838000000
H     2.163000000    -1.041000000     8.841000000
C     2.696000000    -1.086000000     6.795000000
H     3.383000000    -1.913000000     6.956000000
C     2.665000000    -0.379000000     5.563000000
O     3.460000000    -0.743000000     4.505000000
C     3.304000000    -1.939000000     3.833000000
C     4.358000000    -2.809000000     3.621000000
H     5.298000000    -2.604000000     4.126000000
C     4.237000000    -3.818000000     2.710000000
O     5.365000000    -4.590000000     2.210000000
C     5.758000000    -4.620000000     0.879000000
C     5.505000000    -3.469000000     0.088000000
H     4.911000000    -2.693000000     0.564000000
C     6.458000000    -5.704000000     0.308000000
H     6.522000000    -6.645000000     0.850000000
C     6.954000000    -5.601000000    -1.003000000
H     7.399000000    -6.498000000    -1.427000000
C     6.680000000    -4.526000000    -1.777000000
H     6.954000000    -4.511000000    -2.828000000
C     6.017000000    -3.422000000    -1.258000000
O     5.959000000    -2.301000000    -1.968000000
C     4.910000000    -1.667000000    -2.555000000
C     5.244000000    -0.549000000    -3.331000000
H     6.268000000    -0.216000000    -3.186000000
C     4.196000000     0.142000000    -4.001000000
O     4.593000000     1.363000000    -4.522000000
C     3.695000000     2.176000000    -5.112000000
C     3.039000000     3.072000000    -4.316000000
H     3.183000000     2.952000000    -3.245000000
C     3.663000000     2.300000000    -6.499000000
H     4.275000000     1.664000000    -7.134000000
C     2.807000000     3.259000000    -7.060000000
H     2.753000000     3.407000000    -8.135000000
C     2.041000000     4.111000000    -6.261000000
H     1.395000000     4.852000000    -6.726000000
C     2.195000000     4.042000000    -4.867000000
O     1.632000000     5.021000000    -4.115000000
C     0.509000000     4.948000000    -3.277000000
C     0.152000000     6.018000000    -2.514000000
H     0.699000000     6.957000000    -2.468000000
C    -1.025000000     6.025000000    -1.759000000
O    -1.392000000     7.124000000    -1.070000000
C    -1.991000000     7.004000000     0.204000000
C    -3.080000000     7.783000000     0.512000000
H    -3.457000000     8.443000000    -0.265000000
C    -3.715000000     7.719000000     1.773000000
H    -4.607000000     8.319000000     1.936000000
C    -3.197000000     6.838000000     2.673000000
H    -3.740000000     6.772000000     3.613000000
C    -2.006000000     6.135000000     2.432000000
C    -1.386000000     6.209000000     1.197000000
H    -0.425000000     5.711000000     1.097000000
C     2.823000000    -0.167000000     0.557000000
H     3.766000000    -0.600000000     0.232000000
C     1.621000000    -0.780000000     0.133000000
H     1.761000000    -1.735000000    -0.367000000
C     0.381000000    -0.160000000     0.492000000
H    -0.561000000    -0.671000000     0.192000000
C     0.385000000     1.019000000     1.268000000
H    -0.555000000     1.533000000     1.452000000
C     1.634000000     1.583000000     1.703000000
H     1.669000000     2.466000000     2.335000000
C     2.822000000     0.922000000     1.440000000
C     4.118000000     1.441000000     2.028000000
O     3.965000000     2.314000000     2.855000000
O     5.245000000     1.030000000     1.719000000
O     7.253000000     5.949000000     1.373000000
H     6.407000000     6.365000000     1.207000000
H     7.054000000     5.014000000     1.424000000
O     3.949000000     6.288000000    -2.579000000
H     4.521000000     5.746000000    -3.123000000
H     3.800000000     5.764000000    -1.792000000
O     3.350000000     4.910000000     2.468000000
H     2.592000000     4.947000000     3.051000000
H     3.701000000     4.028000000     2.587000000
O     7.294000000    -0.461000000     2.929000000
H     7.334000000    -0.089000000     3.810000000
H     6.485000000    -0.109000000     2.557000000
O     4.377000000     2.366000000     8.603000000
H     4.024000000     1.834000000     7.890000000
H     5.019000000     2.937000000     8.180000000
O     6.997000000     0.185000000     5.427000000
H     6.107000000     0.531000000     5.361000000
H     7.135000000     0.056000000     6.366000000
O     4.763000000     1.921000000     5.437000000
H     4.354000000     1.928000000     4.571000000
H     4.394000000     2.683000000     5.882000000
O     4.763000000     6.973000000     1.833000000
H     4.333000000     6.299000000     2.360000000
H     4.086000000     7.272000000     1.226000000
O     9.220000000     1.806000000     4.502000000
H     8.699000000     2.601000000     4.396000000
H     8.593000000     1.146000000     4.798000000
O     7.658000000     1.448000000    -1.818000000
H     8.160000000     1.829000000    -2.539000000
H     8.019000000     0.568000000    -1.714000000
O     9.196000000     2.089000000     0.782000000
H     8.748000000     1.883000000    -0.038000000
H     9.445000000     1.237000000     1.140000000
O     3.532000000     4.753000000    -0.473000000
H     3.220000000     4.940000000     0.413000000
H     3.908000000     3.875000000    -0.414000000
O     6.919000000     3.194000000     1.701000000
H     7.767000000     2.961000000     1.324000000
H     6.423000000     2.376000000     1.700000000
O     5.804000000     5.911000000     5.595000000
H     6.592000000     5.411000000     5.382000000
H     6.031000000     6.817000000     5.385000000
O     5.080000000     2.301000000    -0.845000000
H     5.375000000     1.607000000    -0.255000000
H     5.610000000     2.186000000    -1.634000000
O     3.347000000     4.602000000     6.349000000
H     4.203000000     5.023000000     6.284000000
H     2.864000000     4.923000000     5.587000000
O     7.004000000     3.736000000     4.472000000
H     7.219000000     4.017000000     3.582000000
H     6.288000000     3.111000000     4.360000000
O     8.788000000    -2.839000000     3.237000000
H     9.596000000    -2.697000000     3.731000000
H     8.277000000    -2.042000000     3.380000000
O     8.786000000    -0.678000000     0.845000000
H     8.251000000    -0.328000000     1.556000000
H     8.922000000    -1.597000000     1.077000000
