215
-1440.39052
C     2.973000000    -2.937000000     3.101000000
H     3.217000000    -3.629000000     2.299000000
C     1.646000000    -2.757000000     3.531000000
C     1.354000000    -1.851000000     4.515000000
H     0.316000000    -1.615000000     4.737000000
C     0.452000000    -3.278000000     2.634000000
O     0.854000000    -4.417000000     1.852000000
H     0.138000000    -2.500000000     1.922000000
O    -0.678000000    -3.621000000     3.407000000
C    -1.856000000    -3.254000000     2.865000000
C    -2.492000000    -2.098000000     3.434000000
H    -2.075000000    -1.679000000     4.346000000
C    -3.681000000    -1.604000000     2.830000000
O    -4.033000000    -0.285000000     3.231000000
C    -4.168000000    -2.156000000     1.673000000
C    -5.202000000    -1.519000000     0.774000000
H    -5.794000000    -2.289000000     0.276000000
C    -4.677000000    -0.399000000    -0.126000000
C    -4.561000000    -0.733000000    -1.446000000
H    -4.831000000    -1.723000000    -1.805000000
H    -5.862000000    -1.057000000     1.511000000
C    -3.567000000    -3.359000000     1.214000000
H    -3.973000000    -3.855000000     0.336000000
C    -2.455000000    -3.888000000     1.831000000
C    -1.893000000    -5.143000000     1.169000000
H    -2.730000000    -5.717000000     0.767000000
H    -1.410000000    -5.832000000     1.864000000
C    -0.856000000    -4.759000000     0.162000000
C    -1.211000000    -4.609000000    -1.184000000
H    -2.201000000    -4.876000000    -1.544000000
C     0.503000000    -4.484000000     0.462000000
C     1.407000000    -4.256000000    -0.511000000
H     2.433000000    -4.040000000    -0.223000000
C     0.992000000    -4.016000000    -1.823000000
O     1.948000000    -3.617000000    -2.722000000
C     1.946000000    -2.203000000    -3.288000000
C     3.374000000    -1.619000000    -3.212000000
C     3.647000000    -0.658000000    -4.136000000
H     2.907000000    -0.262000000    -4.827000000
C     4.343000000    -1.979000000    -2.273000000
H     4.006000000    -2.731000000    -1.564000000
O     1.326000000    -2.070000000    -4.579000000
H     1.346000000    -1.732000000    -2.496000000
C    -0.289000000    -4.258000000    -2.206000000
C    -0.730000000    -4.057000000    -3.619000000
H    -1.642000000    -4.587000000    -3.902000000
H     0.050000000    -4.472000000    -4.261000000
C    -0.984000000    -2.615000000    -4.035000000
C    -2.267000000    -2.139000000    -3.713000000
H    -2.969000000    -2.759000000    -3.161000000
C     0.012000000    -1.732000000    -4.512000000
C    -0.327000000    -0.383000000    -4.745000000
H     0.450000000     0.330000000    -5.005000000
C    -1.679000000     0.028000000    -4.570000000
O    -1.962000000     1.422000000    -4.555000000
C    -1.875000000     2.035000000    -3.212000000
C    -1.098000000     3.285000000    -3.156000000
C     0.107000000     3.351000000    -3.806000000
H     0.486000000     2.496000000    -4.362000000
C    -1.468000000     4.418000000    -2.377000000
H    -2.344000000     4.390000000    -1.735000000
O    -3.192000000     2.328000000    -2.833000000
H    -1.350000000     1.369000000    -2.511000000
C    -2.634000000    -0.816000000    -4.061000000
C    -4.057000000    -0.296000000    -3.845000000
H    -4.606000000    -1.239000000    -3.896000000
H    -4.430000000     0.388000000    -4.610000000
C    -4.149000000     0.199000000    -2.407000000
C    -3.839000000     1.455000000    -2.006000000
C    -3.919000000     1.813000000    -0.590000000
H    -3.602000000     2.809000000    -0.293000000
C    -4.396000000     0.883000000     0.306000000
O    -4.432000000     1.305000000     1.583000000
C    -3.411000000     0.778000000     2.519000000
H    -2.495000000     0.466000000     1.996000000
C    -3.037000000     1.921000000     3.451000000
C    -2.621000000     1.701000000     4.706000000
H    -2.484000000     0.727000000     5.167000000
C    -2.766000000     3.168000000     2.871000000
H    -3.033000000     3.331000000     1.829000000
C    -2.338000000     4.262000000     3.629000000
O    -1.976000000     5.473000000     2.997000000
C    -2.043000000     4.026000000     4.951000000
H    -1.586000000     4.809000000     5.551000000
C    -2.107000000     2.725000000     5.441000000
O    -1.558000000     2.466000000     6.738000000
C    -1.041000000     1.191000000     7.077000000
C     0.132000000     0.863000000     6.442000000
H     0.448000000     1.534000000     5.647000000
C    -1.432000000     0.462000000     8.141000000
H    -2.385000000     0.774000000     8.561000000
C    -0.717000000    -0.701000000     8.490000000
H    -1.136000000    -1.368000000     9.239000000
C     0.464000000    -1.051000000     7.902000000
H     0.954000000    -1.957000000     8.249000000
C     0.907000000    -0.201000000     6.907000000
O     2.163000000    -0.456000000     6.339000000
C     2.420000000    -1.338000000     5.311000000
C     3.769000000    -1.671000000     5.021000000
H     4.561000000    -1.239000000     5.627000000
C     4.010000000    -2.400000000     3.870000000
O     5.360000000    -2.480000000     3.470000000
C     5.694000000    -2.914000000     2.191000000
C     5.782000000    -2.017000000     1.176000000
H     5.299000000    -1.052000000     1.313000000
C     6.348000000    -4.126000000     2.107000000
H     6.258000000    -4.760000000     2.985000000
C     7.014000000    -4.456000000     0.980000000
H     7.532000000    -5.407000000     0.889000000
C     7.062000000    -3.542000000    -0.082000000
H     7.664000000    -3.681000000    -0.976000000
C     6.347000000    -2.373000000    -0.067000000
O     6.435000000    -1.516000000    -1.145000000
C     5.549000000    -1.299000000    -2.189000000
C     5.838000000    -0.435000000    -3.239000000
H     6.761000000     0.140000000    -3.248000000
C     4.862000000    -0.049000000    -4.211000000
O     5.211000000     1.013000000    -5.104000000
C     4.317000000     1.900000000    -5.637000000
C     3.609000000     2.711000000    -4.776000000
H     3.832000000     2.616000000    -3.716000000
C     4.025000000     1.952000000    -7.011000000
H     4.646000000     1.340000000    -7.660000000
C     3.147000000     2.904000000    -7.559000000
H     2.875000000     3.061000000    -8.600000000
C     2.537000000     3.730000000    -6.664000000
H     1.817000000     4.425000000    -7.090000000
C     2.724000000     3.650000000    -5.270000000
O     2.146000000     4.605000000    -4.356000000
C     0.926000000     4.503000000    -3.783000000
C     0.531000000     5.601000000    -3.000000000
H     1.132000000     6.499000000    -2.883000000
C    -0.676000000     5.553000000    -2.292000000
O    -1.106000000     6.640000000    -1.612000000
C    -1.980000000     6.665000000    -0.513000000
C    -3.305000000     6.913000000    -0.679000000
H    -3.657000000     7.369000000    -1.601000000
C    -4.178000000     6.700000000     0.412000000
H    -5.249000000     6.876000000     0.361000000
C    -3.760000000     6.237000000     1.618000000
H    -4.410000000     6.206000000     2.489000000
C    -2.416000000     5.963000000     1.774000000
C    -1.517000000     6.242000000     0.759000000
H    -0.474000000     5.950000000     0.858000000
C     2.270000000     0.777000000     1.989000000
H     3.160000000     0.352000000     2.445000000
C     1.435000000     0.038000000     1.098000000
H     1.741000000    -0.965000000     0.810000000
C     0.318000000     0.602000000     0.440000000
H    -0.149000000     0.137000000    -0.400000000
C     0.032000000     1.919000000     0.734000000
H    -0.805000000     2.407000000     0.241000000
C     0.770000000     2.625000000     1.712000000
H     0.447000000     3.614000000     2.026000000
C     1.914000000     2.088000000     2.291000000
C     2.790000000     2.863000000     3.201000000
O     2.380000000     3.956000000     3.545000000
O     3.909000000     2.471000000     3.430000000
O     8.762000000     3.795000000     0.043000000
H     9.283000000     4.505000000     0.419000000
H     8.055000000     3.657000000     0.673000000
O     4.581000000     5.076000000     0.828000000
H     5.437000000     4.675000000     0.979000000
H     4.043000000     4.367000000     0.474000000
O     5.540000000     1.423000000     1.780000000
H     4.948000000     1.729000000     2.466000000
H     4.984000000     1.334000000     1.006000000
O     5.799000000     1.726000000     5.314000000
H     5.199000000     1.848000000     4.578000000
H     6.306000000     2.538000000     5.347000000
O     7.927000000     0.577000000     2.839000000
H     7.803000000     0.806000000     3.760000000
H     7.150000000     0.923000000     2.399000000
O     1.398000000     6.342000000     7.864000000
H     1.355000000     6.582000000     8.789000000
H     2.250000000     6.668000000     7.572000000
O     4.138000000     7.259000000     4.401000000
H     4.263000000     7.517000000     5.315000000
H     3.192000000     7.148000000     4.310000000
O     2.197000000     3.438000000    -1.114000000
H     1.998000000     3.529000000    -2.046000000
H     1.372000000     3.158000000    -0.719000000
O     1.396000000     6.282000000     3.926000000
H     1.637000000     5.365000000     3.795000000
H     0.812000000     6.271000000     4.685000000
O     6.467000000     6.902000000     2.274000000
H     5.676000000     6.573000000     2.700000000
H     6.905000000     7.420000000     2.950000000
O     3.781000000     2.503000000     9.333000000
H     3.457000000     2.788000000     8.479000000
H     4.237000000     1.680000000     9.154000000
O     7.940000000     1.093000000    -0.671000000
H     7.400000000     1.517000000    -0.004000000
H     7.531000000     0.238000000    -0.802000000
O     7.327000000     4.448000000     2.034000000
H     6.894000000     5.299000000     2.106000000
H     6.839000000     3.879000000     2.629000000
O     3.319000000     2.704000000     6.400000000
H     2.844000000     2.715000000     5.570000000
H     4.225000000     2.514000000     6.155000000
O     5.156000000     4.775000000     3.945000000
H     4.398000000     4.251000000     3.686000000
H     4.792000000     5.634000000     4.158000000
O     4.123000000     1.446000000    -0.452000000
H     3.651000000     2.231000000    -0.729000000
H     3.451000000     0.890000000    -0.057000000
O     7.395000000     4.505000000     5.501000000
H     8.143000000     4.838000000     5.005000000
H     6.643000000     4.653000000     4.927000000
O     0.292000000     8.564000000     2.210000000
H     0.937000000     7.964000000     2.584000000
H     0.608000000     8.733000000     1.323000000
O     2.679000000     6.858000000     1.470000000
H     2.315000000     6.291000000     2.150000000
H     3.469000000     6.403000000     1.176000000
