215
-1461.87935
C     2.525000000    -3.363000000     2.607000000
H     2.654000000    -3.474000000     1.533000000
C     1.240000000    -3.369000000     3.166000000
C     1.032000000    -2.932000000     4.478000000
H     0.055000000    -2.671000000     4.877000000
C     0.087000000    -3.643000000     2.256000000
O     0.275000000    -4.766000000     1.352000000
H    -0.105000000    -2.700000000     1.723000000
O    -1.091000000    -3.855000000     2.975000000
C    -2.190000000    -3.093000000     2.595000000
C    -2.546000000    -1.955000000     3.314000000
H    -1.945000000    -1.591000000     4.143000000
C    -3.598000000    -1.164000000     2.900000000
O    -3.660000000     0.170000000     3.407000000
C    -4.395000000    -1.545000000     1.788000000
C    -5.424000000    -0.594000000     1.237000000
H    -6.140000000    -1.282000000     0.784000000
C    -4.789000000     0.314000000     0.261000000
C    -4.706000000    -0.142000000    -1.067000000
H    -5.229000000    -1.057000000    -1.335000000
H    -6.039000000    -0.195000000     2.046000000
C    -4.096000000    -2.691000000     1.087000000
H    -4.737000000    -2.915000000     0.238000000
C    -3.029000000    -3.454000000     1.471000000
C    -2.706000000    -4.765000000     0.802000000
H    -3.551000000    -5.124000000     0.211000000
H    -2.484000000    -5.582000000     1.492000000
C    -1.613000000    -4.524000000    -0.235000000
C    -1.870000000    -4.258000000    -1.560000000
H    -2.888000000    -4.172000000    -1.933000000
C    -0.227000000    -4.650000000     0.111000000
C     0.806000000    -4.491000000    -0.881000000
H     1.873000000    -4.555000000    -0.684000000
C     0.415000000    -4.147000000    -2.136000000
O     1.383000000    -3.745000000    -3.031000000
C     1.509000000    -2.294000000    -3.212000000
C     2.918000000    -1.789000000    -3.223000000
C     3.112000000    -0.460000000    -3.477000000
H     2.214000000     0.136000000    -3.616000000
C     3.927000000    -2.592000000    -2.804000000
H     3.678000000    -3.627000000    -2.583000000
O     0.862000000    -1.954000000    -4.450000000
H     0.890000000    -1.858000000    -2.413000000
C    -0.902000000    -4.139000000    -2.493000000
C    -1.344000000    -3.805000000    -3.907000000
H    -2.292000000    -4.280000000    -4.169000000
H    -0.503000000    -4.044000000    -4.561000000
C    -1.492000000    -2.252000000    -4.173000000
C    -2.809000000    -1.734000000    -4.027000000
H    -3.644000000    -2.417000000    -3.893000000
C    -0.403000000    -1.431000000    -4.350000000
C    -0.561000000    -0.085000000    -4.557000000
H     0.288000000     0.562000000    -4.760000000
C    -1.886000000     0.481000000    -4.386000000
O    -1.944000000     1.861000000    -4.365000000
C    -1.965000000     2.583000000    -3.106000000
C    -1.034000000     3.804000000    -3.279000000
C     0.071000000     3.894000000    -4.147000000
H     0.295000000     3.084000000    -4.836000000
C    -1.238000000     4.833000000    -2.412000000
H    -2.070000000     4.804000000    -1.714000000
O    -3.255000000     2.884000000    -2.677000000
H    -1.537000000     1.904000000    -2.354000000
C    -2.956000000    -0.314000000    -4.061000000
C    -4.262000000     0.316000000    -3.590000000
H    -5.122000000    -0.324000000    -3.797000000
H    -4.336000000     1.237000000    -4.171000000
C    -4.191000000     0.677000000    -2.112000000
C    -3.853000000     2.024000000    -1.712000000
C    -3.716000000     2.394000000    -0.398000000
H    -3.297000000     3.352000000    -0.099000000
C    -4.096000000     1.495000000     0.610000000
O    -3.916000000     1.906000000     1.908000000
C    -2.973000000     1.149000000     2.609000000
H    -2.265000000     0.685000000     1.906000000
C    -2.080000000     2.013000000     3.477000000
C    -1.564000000     1.617000000     4.686000000
H    -1.888000000     0.674000000     5.117000000
C    -1.591000000     3.233000000     2.934000000
H    -1.851000000     3.519000000     1.918000000
C    -0.760000000     4.083000000     3.637000000
O    -0.341000000     5.304000000     3.128000000
C    -0.245000000     3.690000000     4.844000000
H     0.434000000     4.301000000     5.434000000
C    -0.670000000     2.437000000     5.437000000
O    -0.224000000     2.055000000     6.647000000
C    -0.071000000     0.734000000     6.975000000
C     0.845000000    -0.129000000     6.337000000
H     1.481000000     0.163000000     5.505000000
C    -0.762000000     0.342000000     8.006000000
H    -1.357000000     1.089000000     8.524000000
C    -0.597000000    -0.952000000     8.638000000
H    -1.049000000    -1.169000000     9.602000000
C     0.246000000    -1.860000000     8.025000000
H     0.362000000    -2.851000000     8.458000000
C     1.008000000    -1.400000000     6.957000000
O     2.022000000    -2.187000000     6.481000000
C     2.146000000    -2.506000000     5.137000000
C     3.418000000    -2.611000000     4.654000000
H     4.227000000    -2.306000000     5.312000000
C     3.607000000    -2.959000000     3.315000000
O     4.812000000    -3.024000000     2.731000000
C     5.083000000    -3.667000000     1.505000000
C     5.401000000    -2.906000000     0.371000000
H     5.319000000    -1.825000000     0.450000000
C     5.166000000    -5.046000000     1.521000000
H     5.154000000    -5.671000000     2.410000000
C     5.519000000    -5.666000000     0.255000000
H     5.524000000    -6.752000000     0.196000000
C     5.864000000    -4.854000000    -0.848000000
H     6.347000000    -5.257000000    -1.734000000
C     5.826000000    -3.494000000    -0.827000000
O     6.142000000    -2.795000000    -1.910000000
C     5.190000000    -2.024000000    -2.584000000
C     5.469000000    -0.725000000    -2.895000000
H     6.407000000    -0.194000000    -2.755000000
C     4.422000000     0.056000000    -3.367000000
O     4.724000000     1.398000000    -3.560000000
C     4.165000000     2.169000000    -4.528000000
C     3.353000000     3.247000000    -4.237000000
H     3.018000000     3.533000000    -3.243000000
C     4.386000000     1.835000000    -5.860000000
H     5.087000000     1.044000000    -6.114000000
C     3.853000000     2.677000000    -6.874000000
H     4.045000000     2.362000000    -7.897000000
C     2.978000000     3.708000000    -6.530000000
H     2.467000000     4.281000000    -7.300000000
C     2.813000000     4.040000000    -5.229000000
O     1.965000000     5.049000000    -4.958000000
C     0.973000000     4.957000000    -4.089000000
C     0.776000000     5.961000000    -3.198000000
H     1.598000000     6.652000000    -3.027000000
C    -0.305000000     5.861000000    -2.374000000
O    -0.440000000     6.887000000    -1.420000000
C    -0.993000000     6.785000000    -0.184000000
C    -2.099000000     7.535000000     0.110000000
H    -2.538000000     8.138000000    -0.681000000
C    -2.662000000     7.567000000     1.403000000
H    -3.597000000     8.092000000     1.576000000
C    -2.028000000     6.822000000     2.361000000
H    -2.309000000     6.899000000     3.408000000
C    -0.893000000     6.009000000     2.079000000
C    -0.408000000     5.994000000     0.846000000
H     0.474000000     5.388000000     0.654000000
C     2.054000000     0.206000000     1.877000000
H     2.673000000    -0.365000000     2.564000000
C     1.193000000    -0.411000000     0.948000000
H     1.211000000    -1.480000000     0.751000000
C     0.279000000     0.313000000     0.231000000
H    -0.484000000    -0.039000000    -0.353000000
C     0.392000000     1.745000000     0.312000000
H    -0.222000000     2.448000000    -0.244000000
C     1.271000000     2.359000000     1.234000000
H     1.184000000     3.442000000     1.229000000
C     2.087000000     1.594000000     2.039000000
C     3.017000000     2.219000000     3.023000000
O     3.164000000     3.390000000     3.125000000
O     3.703000000     1.512000000     3.785000000
O     2.237000000     7.279000000     2.682000000
H     1.403000000     6.808000000     2.669000000
H     2.434000000     7.441000000     1.759000000
O     6.869000000     4.029000000     0.537000000
H     6.208000000     3.738000000    -0.091000000
H     6.687000000     3.522000000     1.328000000
O     5.664000000    -0.145000000     4.492000000
H     5.606000000    -0.272000000     5.439000000
H     4.890000000     0.373000000     4.272000000
O     5.403000000     7.097000000     4.038000000
H     4.868000000     6.438000000     4.481000000
H     5.127000000     7.053000000     3.123000000
O     5.614000000    -0.745000000     7.131000000
H     4.936000000    -0.459000000     7.743000000
H     6.430000000    -0.415000000     7.508000000
O     7.523000000     1.796000000     2.875000000
H     8.410000000     2.150000000     2.934000000
H     7.589000000     0.920000000     3.253000000
O     3.407000000     2.985000000     6.132000000
H     3.363000000     2.298000000     5.468000000
H     3.817000000     3.725000000     5.684000000
O     3.901000000     7.578000000    -0.191000000
H     4.824000000     7.738000000     0.006000000
H     3.746000000     6.680000000     0.102000000
O     4.402000000     2.200000000    -0.475000000
H     3.870000000     1.649000000    -1.050000000
H     4.694000000     1.609000000     0.219000000
O     3.261000000     5.407000000     4.925000000
H     3.078000000     4.774000000     4.230000000
H     2.510000000     6.000000000     4.912000000
O     2.906000000     2.701000000     8.918000000
H     3.152000000     2.527000000     8.009000000
H     2.468000000     3.552000000     8.888000000
O     7.473000000     0.317000000    -0.550000000
H     6.678000000     0.324000000    -0.017000000
H     8.187000000     0.378000000     0.084000000
O     6.380000000     6.684000000     1.173000000
H     6.197000000     5.745000000     1.171000000
H     7.328000000     6.743000000     1.295000000
O     1.190000000     7.307000000     5.768000000
H     0.251000000     7.199000000     5.617000000
H     1.406000000     8.138000000     5.345000000
O     5.877000000     3.881000000     3.230000000
H     6.201000000     2.981000000     3.282000000
H     4.936000000     3.805000000     3.386000000
O     5.476000000     0.775000000     1.644000000
H     4.717000000     0.747000000     2.227000000
H     6.138000000     1.260000000     2.136000000
O     8.376000000     4.880000000     3.572000000
H     7.470000000     4.761000000     3.285000000
H     8.373000000     4.618000000     4.492000000
O     3.607000000     4.799000000     0.469000000
H     3.903000000     4.136000000    -0.155000000
H     3.494000000     4.320000000     1.291000000
O     8.290000000    -1.059000000     3.301000000
H     8.234000000    -1.976000000     3.033000000
H     7.411000000    -0.848000000     3.616000000
