215
-1455.23970
C     2.863000000    -2.303000000     3.010000000
H     3.182000000    -2.718000000     2.058000000
C     1.537000000    -2.428000000     3.416000000
C     1.053000000    -1.710000000     4.514000000
H     0.024000000    -1.679000000     4.863000000
C     0.507000000    -3.097000000     2.479000000
O     1.105000000    -4.155000000     1.753000000
H     0.032000000    -2.429000000     1.746000000
O    -0.618000000    -3.726000000     3.152000000
C    -1.859000000    -3.395000000     2.668000000
C    -2.551000000    -2.268000000     3.169000000
H    -2.190000000    -1.704000000     4.025000000
C    -3.591000000    -1.701000000     2.371000000
O    -4.259000000    -0.598000000     2.777000000
C    -4.102000000    -2.411000000     1.269000000
C    -5.189000000    -1.821000000     0.455000000
H    -5.684000000    -2.598000000    -0.132000000
C    -4.601000000    -0.815000000    -0.453000000
C    -4.268000000    -1.220000000    -1.725000000
H    -4.403000000    -2.239000000    -2.079000000
H    -5.857000000    -1.344000000     1.175000000
C    -3.388000000    -3.513000000     0.729000000
H    -3.700000000    -3.835000000    -0.261000000
C    -2.280000000    -4.092000000     1.461000000
C    -1.496000000    -5.229000000     0.931000000
H    -2.141000000    -5.921000000     0.385000000
H    -1.062000000    -5.852000000     1.716000000
C    -0.427000000    -4.752000000    -0.036000000
C    -0.705000000    -4.677000000    -1.429000000
H    -1.642000000    -5.052000000    -1.833000000
C     0.808000000    -4.245000000     0.409000000
C     1.764000000    -3.678000000    -0.442000000
H     2.671000000    -3.269000000    -0.003000000
C     1.476000000    -3.746000000    -1.792000000
O     2.470000000    -3.208000000    -2.590000000
C     2.331000000    -1.856000000    -3.015000000
C     3.694000000    -1.229000000    -2.806000000
C     3.907000000    -0.027000000    -3.415000000
H     3.094000000     0.358000000    -4.025000000
C     4.623000000    -1.677000000    -1.917000000
H     4.460000000    -2.622000000    -1.403000000
O     1.858000000    -1.907000000    -4.418000000
H     1.509000000    -1.416000000    -2.431000000
C     0.236000000    -4.173000000    -2.305000000
C     0.004000000    -4.132000000    -3.789000000
H    -0.788000000    -4.829000000    -4.072000000
H     0.956000000    -4.368000000    -4.269000000
C    -0.443000000    -2.738000000    -4.174000000
C    -1.788000000    -2.444000000    -4.224000000
H    -2.501000000    -3.247000000    -4.054000000
C     0.503000000    -1.690000000    -4.441000000
C     0.062000000    -0.433000000    -4.662000000
H     0.772000000     0.351000000    -4.916000000
C    -1.280000000    -0.106000000    -4.612000000
O    -1.596000000     1.228000000    -4.548000000
C    -1.681000000     1.840000000    -3.243000000
C    -1.030000000     3.151000000    -3.254000000
C     0.009000000     3.512000000    -4.152000000
H     0.266000000     2.758000000    -4.892000000
C    -1.374000000     4.121000000    -2.328000000
H    -2.140000000     3.866000000    -1.600000000
O    -3.080000000     1.966000000    -3.005000000
H    -1.259000000     1.165000000    -2.484000000
C    -2.258000000    -1.124000000    -4.406000000
C    -3.673000000    -0.749000000    -4.097000000
H    -4.335000000    -1.593000000    -4.303000000
H    -3.943000000     0.015000000    -4.830000000
C    -3.864000000    -0.318000000    -2.702000000
C    -3.627000000     0.996000000    -2.229000000
C    -3.970000000     1.438000000    -1.003000000
H    -3.744000000     2.410000000    -0.574000000
C    -4.413000000     0.539000000    -0.086000000
O    -4.728000000     0.981000000     1.140000000
C    -3.823000000     0.630000000     2.232000000
H    -2.815000000     0.443000000     1.835000000
C    -3.635000000     1.767000000     3.156000000
C    -3.481000000     1.493000000     4.512000000
H    -3.663000000     0.488000000     4.883000000
C    -3.280000000     3.060000000     2.702000000
H    -3.281000000     3.207000000     1.625000000
C    -2.823000000     4.051000000     3.518000000
O    -2.509000000     5.311000000     3.194000000
C    -2.657000000     3.716000000     4.832000000
H    -2.168000000     4.349000000     5.568000000
C    -3.016000000     2.514000000     5.342000000
O    -2.532000000     2.209000000     6.602000000
C    -1.774000000     1.119000000     6.866000000
C    -0.533000000     0.895000000     6.281000000
H    -0.063000000     1.553000000     5.555000000
C    -2.320000000     0.209000000     7.791000000
H    -3.246000000     0.478000000     8.294000000
C    -1.603000000    -1.019000000     8.003000000
H    -2.090000000    -1.719000000     8.676000000
C    -0.301000000    -1.141000000     7.500000000
H     0.227000000    -2.073000000     7.688000000
C     0.292000000    -0.135000000     6.731000000
O     1.578000000    -0.173000000     6.348000000
C     1.978000000    -0.962000000     5.249000000
C     3.351000000    -1.060000000     5.045000000
H     4.044000000    -0.625000000     5.761000000
C     3.793000000    -1.690000000     3.853000000
O     5.135000000    -1.803000000     3.682000000
C     5.818000000    -2.337000000     2.625000000
C     5.823000000    -1.710000000     1.414000000
H     5.119000000    -0.917000000     1.174000000
C     6.627000000    -3.387000000     2.898000000
H     6.625000000    -3.861000000     3.876000000
C     7.408000000    -3.871000000     1.861000000
H     8.131000000    -4.671000000     1.998000000
C     7.449000000    -3.220000000     0.649000000
H     8.085000000    -3.528000000    -0.177000000
C     6.576000000    -2.210000000     0.359000000
O     6.738000000    -1.467000000    -0.814000000
C     5.695000000    -0.937000000    -1.534000000
C     5.946000000     0.289000000    -2.162000000
H     6.815000000     0.928000000    -2.025000000
C     5.009000000     0.718000000    -3.095000000
O     5.186000000     1.972000000    -3.661000000
C     4.371000000     2.548000000    -4.656000000
C     3.418000000     3.464000000    -4.308000000
H     3.250000000     3.817000000    -3.293000000
C     4.459000000     2.053000000    -5.997000000
H     5.053000000     1.183000000    -6.265000000
C     3.518000000     2.421000000    -6.947000000
H     3.604000000     2.164000000    -7.999000000
C     2.732000000     3.516000000    -6.587000000
H     2.165000000     3.967000000    -7.397000000
C     2.638000000     4.001000000    -5.274000000
O     1.747000000     5.025000000    -4.969000000
C     0.682000000     4.724000000    -4.132000000
C     0.260000000     5.662000000    -3.233000000
H     0.947000000     6.504000000    -3.188000000
C    -0.726000000     5.388000000    -2.255000000
O    -1.007000000     6.316000000    -1.307000000
C    -2.054000000     6.161000000    -0.373000000
C    -3.390000000     6.282000000    -0.761000000
H    -3.589000000     6.552000000    -1.794000000
C    -4.410000000     6.057000000     0.092000000
H    -5.463000000     6.044000000    -0.178000000
C    -4.144000000     5.858000000     1.500000000
H    -4.879000000     5.497000000     2.216000000
C    -2.774000000     5.827000000     1.900000000
C    -1.733000000     5.862000000     0.986000000
H    -0.697000000     5.655000000     1.244000000
C     1.923000000     0.982000000     1.506000000
H     2.919000000     0.730000000     1.859000000
C     1.249000000     0.131000000     0.667000000
H     1.877000000    -0.631000000     0.213000000
C    -0.092000000     0.366000000     0.390000000
H    -0.613000000    -0.301000000    -0.288000000
C    -0.637000000     1.557000000     0.852000000
H    -1.653000000     1.852000000     0.605000000
C    -0.022000000     2.334000000     1.830000000
H    -0.393000000     3.301000000     2.158000000
C     1.270000000     2.070000000     2.123000000
C     2.035000000     2.850000000     3.161000000
O     1.409000000     3.506000000     3.952000000
O     3.251000000     2.837000000     3.222000000
O     6.320000000     4.315000000    -0.714000000
H     6.263000000     5.055000000    -0.109000000
H     5.542000000     3.791000000    -0.526000000
O     5.347000000     1.859000000     1.791000000
H     4.610000000     2.091000000     2.355000000
H     5.074000000     2.132000000     0.915000000
O     4.858000000     1.781000000     5.041000000
H     4.394000000     1.983000000     4.229000000
H     5.262000000     2.610000000     5.298000000
O     7.693000000     2.057000000     3.159000000
H     7.364000000     1.289000000     3.626000000
H     6.994000000     2.282000000     2.545000000
O     0.126000000     3.965000000     7.346000000
H    -0.094000000     4.890000000     7.233000000
H     0.899000000     3.834000000     6.798000000
O    -0.264000000     8.444000000     3.207000000
H     0.338000000     7.700000000     3.196000000
H    -0.642000000     8.459000000     2.328000000
O     5.476000000     0.520000000     7.405000000
H     6.398000000     0.544000000     7.662000000
H     5.479000000     0.775000000     6.482000000
O     5.064000000     7.093000000     5.933000000
H     4.663000000     6.728000000     6.722000000
H     4.428000000     7.733000000     5.615000000
O     1.869000000     5.773000000    -0.183000000
H     1.145000000     6.162000000    -0.673000000
H     2.505000000     6.483000000    -0.091000000
O     2.703000000     8.749000000     1.206000000
H     2.068000000     8.866000000     0.499000000
H     2.480000000     7.901000000     1.590000000
O     0.159000000     5.540000000     4.782000000
H     0.608000000     4.732000000     4.533000000
H    -0.648000000     5.535000000     4.268000000
O     2.770000000     5.793000000     8.418000000
H     2.862000000     5.257000000     7.630000000
H     2.120000000     6.456000000     8.183000000
O     6.380000000     6.148000000     1.435000000
H     5.605000000     5.699000000     1.774000000
H     7.057000000     5.988000000     2.092000000
O     3.025000000     0.675000000     8.508000000
H     3.868000000     0.616000000     8.059000000
H     2.377000000     0.668000000     7.803000000
O     2.837000000     3.555000000     6.183000000
H     2.449000000     3.543000000     5.308000000
H     3.682000000     3.118000000     6.076000000
O     5.117000000     4.927000000     3.562000000
H     4.469000000     4.223000000     3.536000000
H     5.526000000     4.844000000     4.424000000
O     3.733000000     3.961000000     0.410000000
H     3.144000000     4.671000000     0.156000000
H     3.346000000     3.604000000     1.210000000
O     6.041000000     3.896000000     5.979000000
H     5.810000000     4.410000000     6.753000000
H     6.992000000     3.798000000     6.031000000
O     2.070000000     6.531000000     2.723000000
H     2.139000000     6.570000000     3.676000000
H     2.014000000     5.597000000     2.525000000
