215
-1464.59815
C     2.001000000    -4.191000000     2.594000000
H     1.944000000    -4.754000000     1.666000000
C     0.840000000    -3.598000000     3.136000000
C     0.911000000    -2.846000000     4.332000000
H     0.025000000    -2.343000000     4.712000000
C    -0.383000000    -3.622000000     2.157000000
O    -0.403000000    -4.851000000     1.287000000
H    -0.290000000    -2.688000000     1.583000000
O    -1.591000000    -3.603000000     2.931000000
C    -2.582000000    -2.878000000     2.330000000
C    -2.750000000    -1.643000000     2.914000000
H    -2.014000000    -1.318000000     3.646000000
C    -3.790000000    -0.771000000     2.496000000
O    -3.733000000     0.497000000     3.025000000
C    -4.620000000    -1.175000000     1.432000000
C    -5.665000000    -0.176000000     0.887000000
H    -6.518000000    -0.657000000     0.404000000
C    -4.974000000     0.853000000    -0.080000000
C    -4.989000000     0.695000000    -1.481000000
H    -5.460000000    -0.186000000    -1.912000000
H    -6.067000000     0.461000000     1.678000000
C    -4.462000000    -2.505000000     0.898000000
H    -5.035000000    -2.758000000     0.009000000
C    -3.453000000    -3.351000000     1.329000000
C    -3.266000000    -4.679000000     0.586000000
H    -4.149000000    -4.979000000     0.018000000
H    -3.143000000    -5.527000000     1.263000000
C    -2.110000000    -4.582000000    -0.430000000
C    -2.448000000    -4.179000000    -1.708000000
H    -3.471000000    -3.988000000    -2.021000000
C    -0.796000000    -4.634000000    -0.048000000
C     0.186000000    -4.500000000    -0.994000000
H     1.205000000    -4.575000000    -0.626000000
C    -0.110000000    -4.123000000    -2.301000000
O     0.926000000    -3.746000000    -3.135000000
C     1.278000000    -2.385000000    -3.285000000
C     2.865000000    -2.245000000    -3.313000000
C     3.467000000    -1.206000000    -4.004000000
H     2.922000000    -0.677000000    -4.781000000
C     3.669000000    -3.114000000    -2.493000000
H     3.236000000    -3.937000000    -1.930000000
O     0.665000000    -2.015000000    -4.554000000
H     0.858000000    -1.759000000    -2.484000000
C    -1.484000000    -3.891000000    -2.620000000
C    -1.836000000    -3.390000000    -4.021000000
H    -2.878000000    -3.595000000    -4.276000000
H    -1.235000000    -3.820000000    -4.825000000
C    -1.721000000    -1.904000000    -4.172000000
C    -2.793000000    -1.109000000    -3.939000000
H    -3.732000000    -1.519000000    -3.577000000
C    -0.486000000    -1.308000000    -4.461000000
C    -0.325000000     0.074000000    -4.410000000
H     0.677000000     0.486000000    -4.500000000
C    -1.473000000     0.869000000    -4.247000000
O    -1.335000000     2.181000000    -4.156000000
C    -1.373000000     2.781000000    -2.816000000
C    -0.137000000     3.719000000    -2.529000000
C     1.156000000     3.426000000    -2.856000000
H     1.441000000     2.548000000    -3.429000000
C    -0.393000000     4.944000000    -1.883000000
H    -1.386000000     5.297000000    -1.617000000
O    -2.667000000     3.445000000    -2.521000000
H    -1.243000000     2.006000000    -2.046000000
C    -2.723000000     0.266000000    -4.042000000
C    -4.012000000     1.113000000    -3.839000000
H    -4.911000000     0.560000000    -4.121000000
H    -3.862000000     1.994000000    -4.466000000
C    -4.167000000     1.471000000    -2.323000000
C    -3.592000000     2.686000000    -1.811000000
C    -3.713000000     2.898000000    -0.410000000
H    -3.158000000     3.707000000     0.059000000
C    -4.407000000     2.061000000     0.414000000
O    -4.160000000     2.299000000     1.683000000
C    -3.097000000     1.541000000     2.305000000
H    -2.427000000     1.093000000     1.557000000
C    -2.104000000     2.394000000     3.124000000
C    -1.563000000     1.902000000     4.293000000
H    -1.955000000     0.988000000     4.733000000
C    -1.915000000     3.705000000     2.785000000
H    -2.481000000     4.204000000     2.002000000
C    -1.173000000     4.546000000     3.608000000
O    -1.242000000     5.877000000     3.369000000
C    -0.464000000     4.062000000     4.673000000
H     0.042000000     4.710000000     5.385000000
C    -0.673000000     2.707000000     4.984000000
O    -0.219000000     2.376000000     6.284000000
C     0.114000000     1.087000000     6.823000000
C     0.939000000     0.180000000     6.118000000
H     1.338000000     0.558000000     5.180000000
C    -0.226000000     0.773000000     8.107000000
H    -0.957000000     1.440000000     8.558000000
C     0.014000000    -0.504000000     8.615000000
H    -0.521000000    -0.745000000     9.529000000
C     0.715000000    -1.458000000     7.905000000
H     0.986000000    -2.402000000     8.370000000
C     1.226000000    -1.056000000     6.630000000
O     2.214000000    -1.872000000     6.058000000
C     2.098000000    -2.746000000     5.031000000
C     3.229000000    -3.417000000     4.581000000
H     4.175000000    -3.320000000     5.107000000
C     3.252000000    -4.066000000     3.313000000
O     4.455000000    -4.463000000     2.798000000
C     4.676000000    -4.950000000     1.480000000
C     5.329000000    -4.249000000     0.470000000
H     5.744000000    -3.268000000     0.688000000
C     4.145000000    -6.156000000     1.105000000
H     3.697000000    -6.729000000     1.913000000
C     4.186000000    -6.662000000    -0.140000000
H     3.693000000    -7.619000000    -0.292000000
C     4.769000000    -5.965000000    -1.149000000
H     4.708000000    -6.297000000    -2.182000000
C     5.320000000    -4.700000000    -0.831000000
O     5.849000000    -3.916000000    -1.831000000
C     5.047000000    -2.991000000    -2.508000000
C     5.678000000    -1.861000000    -3.133000000
H     6.754000000    -1.723000000    -3.075000000
C     4.864000000    -1.057000000    -3.884000000
O     5.503000000     0.031000000    -4.577000000
C     5.052000000     1.305000000    -4.685000000
C     4.455000000     1.986000000    -3.627000000
H     4.391000000     1.506000000    -2.653000000
C     5.131000000     1.937000000    -5.902000000
H     5.600000000     1.465000000    -6.762000000
C     4.585000000     3.196000000    -6.036000000
H     4.744000000     3.717000000    -6.977000000
C     3.997000000     3.865000000    -4.986000000
H     3.570000000     4.861000000    -5.073000000
C     3.954000000     3.239000000    -3.743000000
O     3.498000000     3.887000000    -2.644000000
C     2.181000000     4.339000000    -2.481000000
C     1.954000000     5.501000000    -1.798000000
H     2.763000000     6.090000000    -1.374000000
C     0.670000000     5.869000000    -1.523000000
O     0.396000000     7.167000000    -0.948000000
C    -0.529000000     7.206000000     0.003000000
C    -1.659000000     8.012000000    -0.205000000
H    -1.732000000     8.618000000    -1.104000000
C    -2.647000000     8.092000000     0.804000000
H    -3.494000000     8.758000000     0.659000000
C    -2.495000000     7.365000000     1.988000000
H    -3.204000000     7.612000000     2.774000000
C    -1.468000000     6.447000000     2.115000000
C    -0.457000000     6.359000000     1.148000000
H     0.261000000     5.546000000     1.220000000
C     2.435000000     0.251000000     2.267000000
H     3.250000000    -0.294000000     2.737000000
C     1.561000000    -0.428000000     1.402000000
H     1.588000000    -1.512000000     1.318000000
C     0.662000000     0.271000000     0.627000000
H     0.018000000    -0.328000000    -0.012000000
C     0.672000000     1.644000000     0.602000000
H    -0.012000000     2.226000000    -0.011000000
C     1.529000000     2.358000000     1.444000000
H     1.555000000     3.442000000     1.507000000
C     2.443000000     1.643000000     2.297000000
C     3.349000000     2.404000000     3.182000000
O     3.123000000     3.589000000     3.395000000
O     4.279000000     1.837000000     3.783000000
O     2.394000000     6.509000000     3.542000000
H     2.343000000     5.554000000     3.586000000
H     3.095000000     6.740000000     4.150000000
O     5.269000000     4.822000000     4.507000000
H     4.432000000     4.557000000     4.125000000
H     5.910000000     4.228000000     4.115000000
O     5.626000000    -0.408000000     3.291000000
H     5.456000000    -0.840000000     4.128000000
H     5.085000000     0.382000000     3.315000000
O     4.945000000    -0.913000000     5.967000000
H     4.035000000    -1.018000000     6.242000000
H     5.179000000    -0.027000000     6.244000000
O     2.684000000     6.528000000     7.075000000
H     2.882000000     7.462000000     7.011000000
H     1.923000000     6.484000000     7.655000000
O     5.069000000     2.010000000     6.408000000
H     4.864000000     2.071000000     5.475000000
H     4.279000000     2.324000000     6.848000000
O     5.724000000     7.415000000    -0.083000000
H     5.074000000     8.111000000    -0.183000000
H     5.244000000     6.697000000     0.328000000
O     6.898000000     2.820000000     0.918000000
H     7.666000000     3.376000000     0.790000000
H     6.862000000     2.674000000     1.863000000
O     2.526000000     3.709000000     6.001000000
H     2.616000000     3.678000000     5.049000000
H     2.771000000     4.604000000     6.236000000
O     2.443000000     2.717000000     8.475000000
H     2.621000000     3.145000000     7.637000000
H     1.577000000     3.037000000     8.729000000
O     3.338000000    -0.002000000     9.004000000
H     3.641000000    -0.260000000     8.134000000
H     2.963000000     0.870000000     8.878000000
O     6.812000000     2.773000000     3.802000000
H     7.551000000     2.292000000     4.174000000
H     6.042000000     2.263000000     4.055000000
O     8.749000000     4.667000000     1.793000000
H     9.438000000     4.396000000     2.400000000
H     8.076000000     5.056000000     2.353000000
O     5.236000000     0.531000000     0.075000000
H     4.381000000     0.609000000     0.498000000
H     5.812000000     1.093000000     0.594000000
O     5.624000000     6.361000000     7.349000000
H     5.873000000     7.022000000     6.704000000
H     5.071000000     5.749000000     6.865000000
O     7.830000000     5.929000000     4.342000000
H     6.877000000     5.932000000     4.256000000
H     8.011000000     5.241000000     4.983000000
O     8.112000000    -1.827000000     3.781000000
H     8.061000000    -2.399000000     4.546000000
H     7.204000000    -1.580000000     3.605000000
O     4.367000000     4.932000000     1.460000000
H     4.523000000     4.126000000     0.967000000
H     4.020000000     4.634000000     2.301000000
O     7.786000000    -0.535000000     1.153000000
H     7.100000000    -0.836000000     0.558000000
H     7.408000000    -0.638000000     2.026000000
