215
-1421.83976
C     2.587000000    -1.896000000     3.305000000
H     2.915000000    -2.272000000     2.340000000
C     1.317000000    -2.177000000     3.886000000
C     1.021000000    -1.632000000     5.124000000
H     0.052000000    -1.778000000     5.595000000
C     0.287000000    -3.015000000     3.122000000
O     0.807000000    -4.234000000     2.706000000
H    -0.028000000    -2.543000000     2.180000000
O    -0.906000000    -3.197000000     3.925000000
C    -2.149000000    -3.030000000     3.212000000
C    -2.723000000    -1.738000000     3.475000000
H    -2.275000000    -1.076000000     4.212000000
C    -3.794000000    -1.294000000     2.705000000
O    -4.151000000     0.062000000     2.852000000
C    -4.336000000    -2.072000000     1.692000000
C    -5.371000000    -1.573000000     0.705000000
H    -6.020000000    -2.389000000     0.381000000
C    -4.860000000    -0.696000000    -0.422000000
C    -4.455000000    -1.325000000    -1.611000000
H    -4.534000000    -2.406000000    -1.703000000
H    -6.090000000    -0.977000000     1.270000000
C    -3.684000000    -3.301000000     1.343000000
H    -4.114000000    -3.883000000     0.532000000
C    -2.657000000    -3.758000000     2.102000000
C    -1.955000000    -5.045000000     1.726000000
H    -2.789000000    -5.610000000     1.304000000
H    -1.670000000    -5.474000000     2.688000000
C    -0.678000000    -4.811000000     0.866000000
C    -0.881000000    -4.951000000    -0.517000000
H    -1.862000000    -5.316000000    -0.809000000
C     0.603000000    -4.516000000     1.383000000
C     1.605000000    -4.224000000     0.481000000
H     2.539000000    -3.898000000     0.931000000
C     1.432000000    -4.356000000    -0.884000000
O     2.443000000    -3.906000000    -1.706000000
C     2.266000000    -2.550000000    -2.230000000
C     3.525000000    -1.721000000    -2.241000000
C     3.589000000    -0.460000000    -2.833000000
H     2.670000000    -0.017000000    -3.210000000
C     4.680000000    -2.206000000    -1.567000000
H     4.667000000    -3.166000000    -1.058000000
O     1.765000000    -2.669000000    -3.621000000
H     1.499000000    -2.018000000    -1.648000000
C     0.151000000    -4.677000000    -1.388000000
C    -0.096000000    -4.747000000    -2.863000000
H    -0.921000000    -5.427000000    -3.084000000
H     0.763000000    -5.105000000    -3.435000000
C    -0.562000000    -3.411000000    -3.486000000
C    -1.890000000    -2.988000000    -3.568000000
H    -2.647000000    -3.617000000    -3.105000000
C     0.435000000    -2.474000000    -3.872000000
C     0.123000000    -1.231000000    -4.362000000
H     0.880000000    -0.524000000    -4.690000000
C    -1.258000000    -0.908000000    -4.443000000
O    -1.575000000     0.389000000    -4.741000000
C    -1.692000000     1.277000000    -3.678000000
C    -0.905000000     2.600000000    -3.941000000
C     0.005000000     2.740000000    -5.002000000
H     0.232000000     1.917000000    -5.675000000
C    -1.146000000     3.665000000    -3.082000000
H    -1.704000000     3.462000000    -2.171000000
O    -3.128000000     1.565000000    -3.477000000
H    -1.314000000     0.850000000    -2.737000000
C    -2.267000000    -1.760000000    -4.007000000
C    -3.725000000    -1.293000000    -3.982000000
H    -4.488000000    -2.060000000    -4.133000000
H    -3.972000000    -0.644000000    -4.825000000
C    -3.966000000    -0.583000000    -2.689000000
C    -3.756000000     0.785000000    -2.523000000
C    -4.095000000     1.393000000    -1.308000000
H    -4.048000000     2.474000000    -1.208000000
C    -4.729000000     0.685000000    -0.276000000
O    -4.848000000     1.336000000     0.914000000
C    -3.724000000     1.024000000     1.891000000
H    -2.922000000     0.510000000     1.341000000
C    -3.199000000     2.248000000     2.578000000
C    -2.624000000     2.156000000     3.824000000
H    -2.396000000     1.194000000     4.275000000
C    -3.235000000     3.508000000     1.940000000
H    -3.609000000     3.629000000     0.926000000
C    -2.812000000     4.663000000     2.608000000
O    -2.760000000     5.855000000     2.018000000
C    -2.499000000     4.576000000     3.933000000
H    -2.046000000     5.472000000     4.347000000
C    -2.246000000     3.301000000     4.479000000
O    -1.617000000     3.226000000     5.707000000
C    -1.285000000     2.091000000     6.392000000
C    -0.042000000     1.580000000     6.240000000
H     0.574000000     1.997000000     5.447000000
C    -2.231000000     1.509000000     7.215000000
H    -3.270000000     1.827000000     7.241000000
C    -1.873000000     0.405000000     7.989000000
H    -2.531000000    -0.025000000     8.741000000
C    -0.528000000    -0.041000000     7.979000000
H    -0.300000000    -0.958000000     8.517000000
C     0.355000000     0.548000000     7.090000000
O     1.576000000    -0.138000000     6.933000000
C     1.971000000    -0.819000000     5.791000000
C     3.254000000    -0.609000000     5.201000000
H     4.043000000    -0.028000000     5.672000000
C     3.526000000    -1.246000000     4.039000000
O     4.861000000    -1.191000000     3.642000000
C     5.500000000    -1.959000000     2.737000000
C     5.910000000    -1.419000000     1.529000000
H     5.601000000    -0.411000000     1.263000000
C     5.845000000    -3.275000000     3.044000000
H     5.670000000    -3.633000000     4.056000000
C     6.664000000    -3.988000000     2.252000000
H     6.926000000    -5.018000000     2.484000000
C     7.010000000    -3.423000000     0.964000000
H     7.412000000    -4.065000000     0.184000000
C     6.661000000    -2.188000000     0.614000000
O     6.847000000    -1.721000000    -0.704000000
C     5.823000000    -1.396000000    -1.522000000
C     5.922000000    -0.173000000    -2.170000000
H     6.745000000     0.467000000    -1.864000000
C     4.785000000     0.290000000    -2.837000000
O     4.929000000     1.516000000    -3.462000000
C     4.461000000     1.983000000    -4.674000000
C     3.319000000     2.737000000    -4.809000000
H     2.634000000     2.824000000    -3.970000000
C     5.380000000     2.076000000    -5.701000000
H     6.339000000     1.594000000    -5.530000000
C     5.120000000     2.856000000    -6.871000000
H     5.826000000     2.814000000    -7.697000000
C     3.877000000     3.519000000    -6.986000000
H     3.607000000     3.949000000    -7.947000000
C     2.990000000     3.485000000    -5.957000000
O     1.676000000     4.000000000    -6.070000000
C     0.755000000     3.852000000    -5.087000000
C     0.502000000     4.952000000    -4.281000000
H     1.034000000     5.899000000    -4.316000000
C    -0.446000000     4.828000000    -3.278000000
O    -0.570000000     5.895000000    -2.349000000
C    -1.734000000     6.074000000    -1.553000000
C    -3.022000000     6.348000000    -2.080000000
H    -3.099000000     6.308000000    -3.163000000
C    -4.156000000     6.402000000    -1.308000000
H    -5.102000000     6.662000000    -1.777000000
C    -4.032000000     6.286000000     0.079000000
H    -4.912000000     6.354000000     0.713000000
C    -2.793000000     6.139000000     0.675000000
C    -1.722000000     5.947000000    -0.147000000
H    -0.807000000     5.767000000     0.411000000
C     1.061000000     1.359000000     2.412000000
H     1.723000000     1.166000000     3.252000000
C     0.616000000     0.278000000     1.660000000
H     0.943000000    -0.748000000     1.811000000
C    -0.380000000     0.479000000     0.702000000
H    -0.818000000    -0.262000000     0.197000000
C    -0.786000000     1.743000000     0.347000000
H    -1.581000000     1.865000000    -0.385000000
C    -0.227000000     2.819000000     1.109000000
H    -0.639000000     3.792000000     0.854000000
C     0.652000000     2.645000000     2.211000000
C     1.226000000     3.798000000     2.986000000
O     1.146000000     4.896000000     2.552000000
O     1.764000000     3.695000000     4.101000000
O    -0.175000000     3.956000000     8.259000000
H    -0.521000000     4.696000000     7.761000000
H    -0.318000000     3.197000000     7.693000000
O     5.821000000     3.678000000    -1.601000000
H     5.281000000     2.988000000    -1.216000000
H     6.369000000     3.224000000    -2.242000000
O     7.380000000     5.327000000     2.988000000
H     7.533000000     5.365000000     2.044000000
H     6.454000000     5.098000000     3.072000000
O     3.509000000     3.424000000     6.044000000
H     2.736000000     3.477000000     5.481000000
H     4.196000000     3.078000000     5.474000000
O     0.607000000     8.735000000     0.606000000
H    -0.099000000     8.774000000    -0.039000000
H     1.343000000     9.176000000     0.182000000
O     4.724000000     4.965000000     3.651000000
H     3.777000000     4.863000000     3.747000000
H     5.079000000     4.098000000     3.845000000
O    -2.109000000     8.332000000     3.665000000
H    -1.221000000     7.983000000     3.594000000
H    -2.638000000     7.755000000     3.113000000
O     2.351000000     4.325000000    -1.172000000
H     1.948000000     5.160000000    -1.409000000
H     2.707000000     4.471000000    -0.296000000
O     6.014000000     2.724000000     4.629000000
H     6.411000000     2.713000000     5.500000000
H     6.754000000     2.647000000     4.027000000
O     4.546000000     5.739000000     7.343000000
H     4.329000000     5.004000000     6.769000000
H     5.475000000     5.903000000     7.182000000
O     2.243000000     9.240000000     3.296000000
H     3.054000000     8.868000000     3.642000000
H     1.680000000     8.483000000     3.135000000
O     0.656000000     5.948000000     5.294000000
H     0.925000000     5.103000000     4.935000000
H     0.806000000     6.570000000     4.582000000
O     3.383000000     5.224000000     1.217000000
H     2.558000000     5.114000000     1.690000000
H     4.007000000     5.504000000     1.887000000
O     4.201000000     2.027000000    -0.193000000
H     3.575000000     2.629000000    -0.596000000
H     3.854000000     1.874000000     0.686000000
O    -1.169000000     6.242000000     7.158000000
H    -1.474000000     7.145000000     7.071000000
H    -0.550000000     6.128000000     6.436000000
O     4.461000000     7.700000000     4.199000000
H     4.687000000     6.796000000     4.420000000
H     5.252000000     8.200000000     4.397000000
O     2.534000000     3.111000000     8.925000000
H     1.649000000     3.434000000     8.760000000
H     2.829000000     2.778000000     8.078000000
O     2.066000000     7.291000000     7.372000000
H     1.416000000     6.868000000     6.812000000
H     2.891000000     6.860000000     7.149000000
O     0.363000000     7.376000000     2.843000000
H     0.755000000     6.529000000     2.631000000
H     0.377000000     7.860000000     2.017000000
