215
-1430.75128
C     4.220000000    -1.145000000     2.945000000
H     4.644000000    -1.641000000     2.076000000
C     2.910000000    -1.443000000     3.419000000
C     2.222000000    -0.635000000     4.334000000
H     1.158000000    -0.756000000     4.523000000
C     2.030000000    -2.503000000     2.724000000
O     2.630000000    -3.634000000     2.027000000
H     1.560000000    -1.890000000     1.941000000
O     0.918000000    -2.901000000     3.634000000
C    -0.401000000    -3.092000000     3.076000000
C    -1.396000000    -2.284000000     3.603000000
H    -1.066000000    -1.597000000     4.378000000
C    -2.696000000    -2.279000000     3.037000000
O    -3.554000000    -1.276000000     3.406000000
C    -3.022000000    -3.272000000     2.095000000
C    -4.406000000    -3.252000000     1.405000000
H    -4.584000000    -4.281000000     1.086000000
C    -4.442000000    -2.194000000     0.291000000
C    -4.204000000    -2.712000000    -1.003000000
H    -4.163000000    -3.779000000    -1.204000000
H    -5.227000000    -3.188000000     2.122000000
C    -2.041000000    -4.123000000     1.626000000
H    -2.289000000    -4.877000000     0.884000000
C    -0.762000000    -4.107000000     2.183000000
C     0.247000000    -5.163000000     1.692000000
H    -0.179000000    -6.127000000     1.408000000
H     0.926000000    -5.375000000     2.521000000
C     1.100000000    -4.639000000     0.558000000
C     0.722000000    -4.925000000    -0.744000000
H    -0.222000000    -5.430000000    -0.936000000
C     2.220000000    -3.891000000     0.794000000
C     2.971000000    -3.454000000    -0.272000000
H     3.916000000    -2.923000000    -0.192000000
C     2.528000000    -3.663000000    -1.582000000
O     3.182000000    -3.036000000    -2.586000000
C     2.623000000    -1.719000000    -2.921000000
C     3.615000000    -0.573000000    -3.001000000
C     3.217000000     0.568000000    -3.643000000
H     2.314000000     0.504000000    -4.245000000
C     4.759000000    -0.624000000    -2.165000000
H     5.042000000    -1.489000000    -1.572000000
O     1.908000000    -1.929000000    -4.173000000
H     1.903000000    -1.490000000    -2.122000000
C     1.409000000    -4.454000000    -1.847000000
C     0.860000000    -4.526000000    -3.213000000
H     0.239000000    -5.424000000    -3.202000000
H     1.638000000    -4.770000000    -3.940000000
C     0.047000000    -3.303000000    -3.541000000
C    -1.375000000    -3.319000000    -3.394000000
H    -1.840000000    -4.204000000    -2.968000000
C     0.555000000    -2.124000000    -4.153000000
C    -0.208000000    -1.050000000    -4.446000000
H     0.226000000    -0.116000000    -4.795000000
C    -1.594000000    -1.050000000    -4.184000000
O    -2.302000000     0.089000000    -4.354000000
C    -2.751000000     0.883000000    -3.180000000
C    -2.630000000     2.392000000    -3.529000000
C    -1.607000000     2.841000000    -4.313000000
H    -0.924000000     2.100000000    -4.721000000
C    -3.495000000     3.309000000    -2.882000000
H    -4.228000000     2.886000000    -2.200000000
O    -4.065000000     0.525000000    -2.776000000
H    -2.053000000     0.700000000    -2.349000000
C    -2.199000000    -2.210000000    -3.763000000
C    -3.638000000    -2.347000000    -3.440000000
H    -3.973000000    -3.386000000    -3.469000000
H    -4.190000000    -1.835000000    -4.231000000
C    -3.989000000    -1.821000000    -2.092000000
C    -4.194000000    -0.495000000    -1.879000000
C    -4.556000000     0.007000000    -0.654000000
H    -4.604000000     1.087000000    -0.547000000
C    -4.645000000    -0.789000000     0.476000000
O    -4.795000000    -0.167000000     1.731000000
C    -3.618000000    -0.166000000     2.540000000
H    -2.837000000    -0.184000000     1.766000000
C    -3.511000000     1.079000000     3.294000000
C    -3.184000000     1.157000000     4.623000000
H    -3.146000000     0.210000000     5.156000000
C    -3.473000000     2.254000000     2.522000000
H    -3.439000000     2.168000000     1.439000000
C    -3.189000000     3.539000000     3.084000000
O    -3.218000000     4.704000000     2.270000000
C    -2.933000000     3.588000000     4.514000000
H    -2.695000000     4.527000000     5.008000000
C    -2.919000000     2.413000000     5.242000000
O    -2.361000000     2.412000000     6.523000000
C    -1.218000000     1.642000000     6.809000000
C    -0.009000000     1.802000000     6.090000000
H     0.051000000     2.560000000     5.313000000
C    -1.244000000     0.725000000     7.842000000
H    -2.133000000     0.586000000     8.452000000
C    -0.100000000    -0.071000000     8.120000000
H    -0.081000000    -0.821000000     8.907000000
C     1.062000000     0.168000000     7.486000000
H     1.993000000    -0.334000000     7.735000000
C     1.119000000     0.988000000     6.371000000
O     2.349000000     1.218000000     5.851000000
C     2.937000000     0.443000000     4.928000000
C     4.276000000     0.653000000     4.535000000
H     4.855000000     1.484000000     4.930000000
C     4.932000000    -0.108000000     3.576000000
O     6.218000000     0.056000000     3.252000000
C     6.849000000    -0.253000000     2.117000000
C     6.427000000     0.186000000     0.855000000
H     5.669000000     0.961000000     0.769000000
C     7.878000000    -1.244000000     2.206000000
H     8.185000000    -1.557000000     3.200000000
C     8.542000000    -1.690000000     1.052000000
H     9.341000000    -2.424000000     1.120000000
C     8.203000000    -1.058000000    -0.135000000
H     8.700000000    -1.408000000    -1.036000000
C     7.093000000    -0.206000000    -0.298000000
O     6.820000000     0.418000000    -1.499000000
C     5.586000000     0.504000000    -2.206000000
C     5.215000000     1.627000000    -2.894000000
H     5.865000000     2.493000000    -2.982000000
C     4.024000000     1.676000000    -3.536000000
O     3.909000000     2.741000000    -4.429000000
C     2.904000000     2.918000000    -5.302000000
C     1.894000000     3.819000000    -4.996000000
H     1.984000000     4.477000000    -4.136000000
C     2.700000000     2.008000000    -6.333000000
H     3.445000000     1.229000000    -6.476000000
C     1.543000000     2.034000000    -7.095000000
H     1.400000000     1.352000000    -7.929000000
C     0.558000000     2.974000000    -6.755000000
H    -0.344000000     3.068000000    -7.354000000
C     0.726000000     3.885000000    -5.735000000
O    -0.361000000     4.631000000    -5.289000000
C    -1.420000000     4.217000000    -4.583000000
C    -2.257000000     5.172000000    -4.008000000
H    -1.919000000     6.192000000    -4.169000000
C    -3.349000000     4.707000000    -3.179000000
O    -4.033000000     5.662000000    -2.421000000
C    -4.440000000     5.426000000    -1.109000000
C    -5.857000000     5.353000000    -0.905000000
H    -6.506000000     5.287000000    -1.775000000
C    -6.352000000     5.072000000     0.331000000
H    -7.426000000     4.905000000     0.363000000
C    -5.487000000     4.828000000     1.399000000
H    -5.828000000     4.552000000     2.393000000
C    -4.097000000     4.952000000     1.225000000
C    -3.621000000     5.268000000    -0.048000000
H    -2.538000000     5.293000000    -0.140000000
C    -0.209000000     2.201000000     1.669000000
H    -0.618000000     2.516000000     2.625000000
C    -0.300000000     0.830000000     1.476000000
H    -0.698000000     0.208000000     2.274000000
C     0.035000000     0.300000000     0.239000000
H     0.041000000    -0.787000000     0.094000000
C     0.416000000     1.114000000    -0.815000000
H     0.587000000     0.679000000    -1.797000000
C     0.426000000     2.509000000    -0.668000000
H     0.633000000     3.155000000    -1.517000000
C     0.179000000     3.086000000     0.636000000
C     0.321000000     4.508000000     0.996000000
O     0.263000000     5.319000000     0.089000000
O     0.681000000     4.940000000     2.109000000
O     4.227000000     3.921000000     5.473000000
H     3.488000000     3.771000000     4.884000000
H     5.001000000     3.753000000     4.935000000
O    -1.182000000     6.940000000     4.657000000
H    -0.616000000     7.502000000     5.187000000
H    -1.111000000     7.295000000     3.771000000
O     4.916000000     8.146000000     4.166000000
H     4.328000000     7.695000000     3.560000000
H     4.701000000     9.073000000     4.063000000
O     6.336000000     4.779000000     0.861000000
H     6.575000000     5.525000000     0.311000000
H     5.550000000     4.420000000     0.448000000
O     4.658000000     5.873000000    -2.549000000
H     4.197000000     6.079000000    -3.362000000
H     4.004000000     6.001000000    -1.862000000
O    -0.876000000     9.954000000     1.666000000
H    -0.522000000    10.498000000     2.370000000
H    -1.464000000     9.342000000     2.110000000
O     2.513000000     9.046000000     0.242000000
H     1.660000000     9.244000000    -0.144000000
H     3.094000000     9.724000000    -0.102000000
O    -1.402000000    10.475000000    -1.351000000
H    -1.367000000    11.431000000    -1.303000000
H    -1.080000000    10.181000000    -0.499000000
O     5.622000000     3.369000000     3.182000000
H     4.822000000     2.997000000     2.812000000
H     5.985000000     3.907000000     2.478000000
O    -3.851000000     8.295000000    -1.009000000
H    -3.474000000     7.477000000    -1.336000000
H    -3.176000000     8.657000000    -0.435000000
O     0.691000000     6.989000000    -2.788000000
H     0.517000000     6.624000000    -1.921000000
H     1.517000000     6.586000000    -3.056000000
O     3.536000000     3.884000000     0.549000000
H     3.139000000     3.254000000    -0.053000000
H     3.257000000     4.738000000     0.220000000
O    -0.151000000     9.361000000    -3.570000000
H    -0.501000000     9.592000000    -2.710000000
H     0.125000000     8.449000000    -3.479000000
O     3.040000000     6.310000000     2.900000000
H     3.589000000     5.530000000     2.983000000
H     2.211000000     5.984000000     2.551000000
O     2.236000000     3.266000000     3.684000000
H     1.781000000     3.929000000     3.166000000
H     2.044000000     2.440000000     3.239000000
O     2.701000000     6.449000000    -0.552000000
H     2.773000000     7.392000000    -0.402000000
H     1.863000000     6.208000000    -0.155000000
O     2.085000000     8.788000000     2.910000000
H     2.262000000     7.877000000     3.142000000
H     2.297000000     8.844000000     1.978000000
O    -3.701000000     7.910000000     3.413000000
H    -2.942000000     7.471000000     3.031000000
H    -4.097000000     7.252000000     3.984000000
O    -1.303000000     7.243000000     1.985000000
H    -0.877000000     6.391000000     1.889000000
H    -0.768000000     7.838000000     1.460000000
