215
-1430.67066
C     3.833000000    -2.181000000     2.879000000
H     4.222000000    -2.703000000     2.009000000
C     2.478000000    -2.328000000     3.222000000
C     2.029000000    -1.678000000     4.338000000
H     1.026000000    -1.864000000     4.712000000
C     1.595000000    -3.145000000     2.365000000
O     2.212000000    -4.071000000     1.570000000
H     1.182000000    -2.372000000     1.700000000
O     0.478000000    -3.748000000     3.149000000
C    -0.776000000    -3.742000000     2.701000000
C    -1.689000000    -2.873000000     3.229000000
H    -1.369000000    -2.220000000     4.038000000
C    -2.940000000    -2.741000000     2.615000000
O    -3.795000000    -1.811000000     3.204000000
C    -3.233000000    -3.431000000     1.446000000
C    -4.547000000    -3.302000000     0.714000000
H    -4.731000000    -4.301000000     0.314000000
C    -4.476000000    -2.126000000    -0.277000000
C    -4.238000000    -2.376000000    -1.657000000
H    -4.139000000    -3.408000000    -1.985000000
H    -5.360000000    -3.164000000     1.430000000
C    -2.380000000    -4.404000000     1.056000000
H    -2.818000000    -5.041000000     0.291000000
C    -1.100000000    -4.547000000     1.633000000
C    -0.145000000    -5.514000000     1.003000000
H    -0.767000000    -6.322000000     0.613000000
H     0.509000000    -6.013000000     1.722000000
C     0.736000000    -4.814000000    -0.088000000
C     0.375000000    -4.665000000    -1.449000000
H    -0.489000000    -5.191000000    -1.847000000
C     1.832000000    -4.130000000     0.282000000
C     2.639000000    -3.404000000    -0.588000000
H     3.473000000    -2.879000000    -0.130000000
C     2.307000000    -3.335000000    -1.947000000
O     3.063000000    -2.503000000    -2.712000000
C     2.503000000    -1.231000000    -2.965000000
C     3.588000000    -0.152000000    -2.935000000
C     3.304000000     1.073000000    -3.605000000
H     2.372000000     1.165000000    -4.158000000
C     4.660000000    -0.255000000    -2.074000000
H     4.965000000    -1.255000000    -1.779000000
O     1.872000000    -1.252000000    -4.258000000
H     1.858000000    -1.024000000    -2.099000000
C     1.141000000    -3.939000000    -2.361000000
C     0.757000000    -3.936000000    -3.889000000
H     0.273000000    -4.880000000    -4.146000000
H     1.591000000    -3.786000000    -4.578000000
C    -0.170000000    -2.737000000    -4.153000000
C    -1.593000000    -2.825000000    -4.024000000
H    -2.097000000    -3.775000000    -3.863000000
C     0.479000000    -1.466000000    -4.317000000
C    -0.295000000    -0.324000000    -4.508000000
H     0.206000000     0.638000000    -4.572000000
C    -1.667000000    -0.405000000    -4.488000000
O    -2.417000000     0.732000000    -4.469000000
C    -2.652000000     1.248000000    -3.154000000
C    -2.258000000     2.714000000    -3.095000000
C    -1.556000000     3.307000000    -4.132000000
H    -1.209000000     2.718000000    -4.977000000
C    -2.443000000     3.419000000    -1.934000000
H    -2.832000000     2.924000000    -1.047000000
O    -4.069000000     0.990000000    -2.912000000
H    -2.008000000     0.750000000    -2.414000000
C    -2.313000000    -1.629000000    -4.206000000
C    -3.860000000    -1.693000000    -3.941000000
H    -4.324000000    -2.640000000    -4.226000000
H    -4.397000000    -1.026000000    -4.619000000
C    -4.224000000    -1.367000000    -2.517000000
C    -4.297000000    -0.059000000    -2.072000000
C    -4.744000000     0.160000000    -0.767000000
H    -4.926000000     1.172000000    -0.414000000
C    -4.701000000    -0.839000000     0.186000000
O    -4.983000000    -0.518000000     1.485000000
C    -3.920000000    -0.541000000     2.519000000
H    -3.045000000    -0.465000000     1.857000000
C    -3.629000000     0.688000000     3.372000000
C    -2.864000000     0.666000000     4.504000000
H    -2.437000000    -0.299000000     4.763000000
C    -4.120000000     1.965000000     3.034000000
H    -4.583000000     2.084000000     2.058000000
C    -3.967000000     3.107000000     3.845000000
O    -4.421000000     4.332000000     3.474000000
C    -3.236000000     3.030000000     5.035000000
H    -2.978000000     3.914000000     5.613000000
C    -2.684000000     1.789000000     5.327000000
O    -2.013000000     1.698000000     6.457000000
C    -0.949000000     0.834000000     6.772000000
C     0.265000000     0.809000000     6.120000000
H     0.426000000     1.410000000     5.229000000
C    -1.182000000    -0.031000000     7.832000000
H    -2.154000000     0.043000000     8.311000000
C    -0.140000000    -0.808000000     8.411000000
H    -0.359000000    -1.314000000     9.348000000
C     1.142000000    -0.746000000     7.823000000
H     1.930000000    -1.419000000     8.150000000
C     1.271000000    -0.042000000     6.629000000
O     2.473000000     0.044000000     6.070000000
C     2.840000000    -0.746000000     5.003000000
C     4.151000000    -0.548000000     4.599000000
H     4.949000000     0.056000000     5.024000000
C     4.650000000    -1.349000000     3.594000000
O     5.957000000    -1.161000000     3.248000000
C     6.496000000    -1.199000000     2.006000000
C     6.135000000    -0.226000000     1.076000000
H     5.303000000     0.442000000     1.279000000
C     7.475000000    -2.121000000     1.781000000
H     7.710000000    -2.841000000     2.560000000
C     8.144000000    -2.078000000     0.520000000
H     8.690000000    -2.992000000     0.304000000
C     7.879000000    -1.116000000    -0.427000000
H     8.440000000    -1.012000000    -1.352000000
C     6.841000000    -0.202000000    -0.113000000
O     6.585000000     0.726000000    -0.988000000
C     5.521000000     0.845000000    -1.891000000
C     5.220000000     2.026000000    -2.495000000
H     5.839000000     2.894000000    -2.281000000
C     4.111000000     2.168000000    -3.310000000
O     3.692000000     3.374000000    -3.752000000
C     2.876000000     3.661000000    -4.872000000
C     1.711000000     4.265000000    -4.438000000
H     1.652000000     4.549000000    -3.390000000
C     3.062000000     3.300000000    -6.148000000
H     3.964000000     2.768000000    -6.438000000
C     2.185000000     3.704000000    -7.121000000
H     2.396000000     3.372000000    -8.134000000
C     1.003000000     4.391000000    -6.762000000
H     0.317000000     4.578000000    -7.584000000
C     0.812000000     4.680000000    -5.405000000
O    -0.409000000     5.241000000    -5.026000000
C    -1.038000000     4.633000000    -4.000000000
C    -1.192000000     5.296000000    -2.821000000
H    -0.654000000     6.219000000    -2.623000000
C    -1.872000000     4.637000000    -1.754000000
O    -1.789000000     5.180000000    -0.453000000
C    -2.940000000     5.318000000     0.231000000
C    -4.007000000     6.030000000    -0.348000000
H    -3.982000000     6.548000000    -1.304000000
C    -5.190000000     6.135000000     0.362000000
H    -6.001000000     6.798000000     0.071000000
C    -5.276000000     5.633000000     1.684000000
H    -6.145000000     5.874000000     2.291000000
C    -4.236000000     4.903000000     2.202000000
C    -3.045000000     4.727000000     1.492000000
H    -2.186000000     4.171000000     1.860000000
C    -0.094000000     2.182000000     1.693000000
H    -0.221000000     2.523000000     2.718000000
C    -0.543000000     0.923000000     1.247000000
H    -0.972000000     0.251000000     1.986000000
C    -0.357000000     0.432000000    -0.064000000
H    -0.546000000    -0.651000000    -0.156000000
C     0.138000000     1.273000000    -1.039000000
H     0.209000000     1.005000000    -2.090000000
C     0.397000000     2.529000000    -0.631000000
H     0.815000000     3.161000000    -1.411000000
C     0.405000000     3.027000000     0.678000000
C     1.141000000     4.284000000     0.993000000
O     1.891000000     4.797000000     0.195000000
O     1.015000000     4.867000000     2.039000000
O     2.799000000     8.623000000     4.459000000
H     2.209000000     8.620000000     5.213000000
H     3.674000000     8.542000000     4.839000000
O    -1.231000000     6.602000000     4.414000000
H    -2.037000000     6.086000000     4.446000000
H    -0.530000000     5.953000000     4.467000000
O     3.925000000     5.675000000     5.011000000
H     4.759000000     6.077000000     5.255000000
H     3.714000000     6.058000000     4.159000000
O     3.600000000     6.682000000     2.292000000
H     2.936000000     6.106000000     1.912000000
H     3.879000000     7.238000000     1.564000000
O     0.634000000     4.962000000     7.087000000
H     0.767000000     4.997000000     6.140000000
H     1.340000000     5.498000000     7.448000000
O     2.675000000     7.004000000    -3.820000000
H     1.864000000     7.512000000    -3.799000000
H     2.823000000     6.827000000    -4.749000000
O     6.398000000     6.571000000     3.077000000
H     6.923000000     6.777000000     2.304000000
H     5.533000000     6.355000000     2.729000000
O     6.754000000     2.905000000     2.023000000
H     5.961000000     3.085000000     1.519000000
H     7.471000000     3.100000000     1.419000000
O     1.606000000     9.117000000    -0.514000000
H     2.102000000     8.385000000    -0.881000000
H     1.099000000     8.730000000     0.199000000
O    -1.813000000     8.809000000     1.017000000
H    -1.185000000     8.087000000     0.997000000
H    -1.652000000     9.289000000     0.204000000
O     0.549000000     7.571000000     1.583000000
H     0.646000000     6.646000000     1.807000000
H     1.355000000     7.980000000     1.900000000
O     3.416000000     2.198000000     2.209000000
H     3.070000000     1.338000000     1.970000000
H     3.574000000     2.633000000     1.371000000
O     0.736000000     4.402000000     4.568000000
H     0.672000000     4.585000000     3.630000000
H     1.572000000     3.946000000     4.666000000
O     4.845000000     8.199000000     0.289000000
H     4.133000000     7.751000000    -0.167000000
H     5.619000000     8.028000000    -0.247000000
O     3.180000000     3.034000000     4.852000000
H     3.213000000     2.614000000     3.992000000
H     3.618000000     3.875000000     4.724000000
O     4.450000000     4.081000000     0.261000000
H     4.876000000     4.608000000    -0.415000000
H     3.516000000     4.256000000     0.149000000
O    -1.104000000     9.337000000     3.553000000
H    -1.472000000     9.266000000     2.672000000
H    -1.009000000     8.431000000     3.846000000
O     5.684000000     5.248000000    -2.669000000
H     4.954000000     5.130000000    -3.278000000
H     6.462000000     5.252000000    -3.226000000
O     2.987000000     7.004000000    -1.083000000
H     2.714000000     6.269000000    -0.534000000
H     3.027000000     6.641000000    -1.968000000
