215
-1467.26537
C     3.790000000    -1.940000000     2.951000000
H     4.181000000    -2.341000000     2.020000000
C     2.559000000    -2.336000000     3.547000000
C     2.275000000    -1.874000000     4.838000000
H     1.312000000    -2.109000000     5.283000000
C     1.544000000    -3.137000000     2.651000000
O     2.291000000    -4.044000000     1.769000000
H     0.991000000    -2.378000000     2.079000000
O     0.538000000    -3.703000000     3.422000000
C    -0.698000000    -3.631000000     2.894000000
C    -1.546000000    -2.722000000     3.497000000
H    -1.219000000    -2.096000000     4.324000000
C    -2.802000000    -2.483000000     2.893000000
O    -3.484000000    -1.333000000     3.218000000
C    -3.215000000    -3.246000000     1.747000000
C    -4.618000000    -2.949000000     1.149000000
H    -4.993000000    -3.804000000     0.583000000
C    -4.649000000    -1.858000000     0.038000000
C    -4.456000000    -2.177000000    -1.307000000
H    -4.166000000    -3.192000000    -1.566000000
H    -5.356000000    -2.783000000     1.936000000
C    -2.349000000    -4.239000000     1.246000000
H    -2.676000000    -4.796000000     0.372000000
C    -1.119000000    -4.458000000     1.867000000
C    -0.149000000    -5.417000000     1.161000000
H    -0.739000000    -6.179000000     0.646000000
H     0.426000000    -5.927000000     1.936000000
C     0.738000000    -4.720000000     0.206000000
C     0.254000000    -4.688000000    -1.104000000
H    -0.755000000    -4.934000000    -1.425000000
C     1.936000000    -4.102000000     0.496000000
C     2.705000000    -3.523000000    -0.459000000
H     3.653000000    -3.063000000    -0.193000000
C     2.255000000    -3.481000000    -1.761000000
O     2.983000000    -2.725000000    -2.600000000
C     2.507000000    -1.387000000    -2.984000000
C     3.640000000    -0.365000000    -3.083000000
C     3.564000000     0.684000000    -4.054000000
H     2.812000000     0.671000000    -4.839000000
C     4.764000000    -0.474000000    -2.260000000
H     4.910000000    -1.285000000    -1.551000000
O     1.748000000    -1.462000000    -4.197000000
H     1.892000000    -0.922000000    -2.200000000
C     1.030000000    -4.112000000    -2.129000000
C     0.542000000    -4.050000000    -3.598000000
H    -0.043000000    -4.928000000    -3.878000000
H     1.418000000    -3.955000000    -4.244000000
C    -0.257000000    -2.789000000    -3.751000000
C    -1.646000000    -2.782000000    -3.687000000
H    -2.199000000    -3.693000000    -3.477000000
C     0.379000000    -1.579000000    -4.174000000
C    -0.361000000    -0.450000000    -4.408000000
H     0.191000000     0.421000000    -4.753000000
C    -1.740000000    -0.409000000    -4.246000000
O    -2.322000000     0.850000000    -4.344000000
C    -2.628000000     1.429000000    -3.044000000
C    -2.348000000     2.942000000    -3.206000000
C    -1.166000000     3.374000000    -3.833000000
H    -0.531000000     2.656000000    -4.347000000
C    -3.176000000     3.870000000    -2.603000000
H    -4.047000000     3.523000000    -2.054000000
O    -4.011000000     1.155000000    -2.817000000
H    -2.023000000     0.925000000    -2.276000000
C    -2.397000000    -1.596000000    -3.860000000
C    -3.936000000    -1.606000000    -3.676000000
H    -4.409000000    -2.579000000    -3.820000000
H    -4.472000000    -0.858000000    -4.263000000
C    -4.326000000    -1.157000000    -2.271000000
C    -4.387000000     0.194000000    -1.918000000
C    -4.706000000     0.536000000    -0.559000000
H    -4.694000000     1.550000000    -0.167000000
C    -4.821000000    -0.464000000     0.391000000
O    -4.576000000    -0.034000000     1.687000000
C    -3.274000000    -0.215000000     2.368000000
H    -2.494000000    -0.338000000     1.602000000
C    -2.874000000     1.016000000     3.196000000
C    -2.309000000     0.907000000     4.487000000
H    -2.335000000    -0.056000000     4.991000000
C    -2.973000000     2.263000000     2.593000000
H    -3.260000000     2.310000000     1.545000000
C    -2.689000000     3.429000000     3.271000000
O    -2.786000000     4.712000000     2.740000000
C    -2.188000000     3.348000000     4.548000000
H    -1.835000000     4.246000000     5.049000000
C    -2.069000000     2.098000000     5.135000000
O    -1.533000000     1.998000000     6.401000000
C    -0.832000000     0.911000000     6.857000000
C     0.504000000     0.807000000     6.418000000
H     0.952000000     1.455000000     5.669000000
C    -1.332000000     0.063000000     7.862000000
H    -2.295000000     0.167000000     8.354000000
C    -0.553000000    -1.044000000     8.308000000
H    -0.913000000    -1.740000000     9.062000000
C     0.779000000    -1.174000000     7.884000000
H     1.451000000    -1.966000000     8.203000000
C     1.279000000    -0.233000000     6.973000000
O     2.652000000    -0.343000000     6.660000000
C     3.083000000    -0.903000000     5.467000000
C     4.345000000    -0.568000000     4.952000000
H     4.951000000     0.205000000     5.417000000
C     4.604000000    -1.023000000     3.648000000
O     5.779000000    -0.426000000     3.102000000
C     6.375000000    -0.843000000     1.945000000
C     6.353000000     0.003000000     0.848000000
H     5.740000000     0.900000000     0.856000000
C     6.934000000    -2.120000000     1.819000000
H     6.963000000    -2.719000000     2.726000000
C     7.416000000    -2.553000000     0.558000000
H     7.919000000    -3.510000000     0.444000000
C     7.391000000    -1.673000000    -0.531000000
H     7.722000000    -2.022000000    -1.506000000
C     6.923000000    -0.370000000    -0.370000000
O     6.873000000     0.470000000    -1.511000000
C     5.746000000     0.510000000    -2.358000000
C     5.649000000     1.565000000    -3.315000000
H     6.397000000     2.345000000    -3.428000000
C     4.571000000     1.638000000    -4.153000000
O     4.432000000     2.731000000    -5.015000000
C     3.197000000     3.276000000    -5.527000000
C     2.423000000     4.080000000    -4.725000000
H     2.747000000     4.345000000    -3.722000000
C     2.700000000     2.857000000    -6.784000000
H     3.294000000     2.218000000    -7.432000000
C     1.484000000     3.351000000    -7.303000000
H     1.140000000     2.876000000    -8.219000000
C     0.765000000     4.245000000    -6.515000000
H    -0.155000000     4.646000000    -6.932000000
C     1.226000000     4.573000000    -5.231000000
O     0.292000000     5.274000000    -4.443000000
C    -0.811000000     4.746000000    -3.809000000
C    -1.649000000     5.646000000    -3.178000000
H    -1.366000000     6.659000000    -2.905000000
C    -2.815000000     5.183000000    -2.486000000
O    -3.464000000     6.085000000    -1.704000000
C    -4.035000000     5.715000000    -0.503000000
C    -5.416000000     5.582000000    -0.384000000
H    -6.061000000     5.891000000    -1.203000000
C    -5.902000000     5.083000000     0.869000000
H    -6.972000000     5.057000000     1.058000000
C    -5.044000000     4.628000000     1.819000000
H    -5.393000000     4.287000000     2.790000000
C    -3.695000000     4.910000000     1.716000000
C    -3.204000000     5.421000000     0.548000000
H    -2.143000000     5.655000000     0.565000000
C     0.375000000     1.544000000     1.930000000
H     0.341000000     1.760000000     2.994000000
C    -0.001000000     0.267000000     1.388000000
H    -0.302000000    -0.571000000     2.012000000
C     0.003000000     0.021000000     0.010000000
H    -0.257000000    -0.967000000    -0.426000000
C     0.242000000     1.081000000    -0.852000000
H     0.329000000     0.944000000    -1.927000000
C     0.703000000     2.324000000    -0.339000000
H     0.865000000     3.165000000    -1.008000000
C     0.697000000     2.594000000     1.064000000
C     1.125000000     3.963000000     1.420000000
O     1.011000000     4.908000000     0.645000000
O     1.333000000     4.244000000     2.652000000
O     0.369000000     7.515000000     5.129000000
H     0.670000000     6.656000000     5.425000000
H     0.310000000     7.433000000     4.177000000
O    -0.139000000     6.697000000     2.419000000
H    -0.350000000     6.843000000     1.497000000
H     0.396000000     5.903000000     2.419000000
O     3.884000000     5.693000000     6.319000000
H     4.831000000     5.686000000     6.184000000
H     3.760000000     5.275000000     7.172000000
O     3.754000000     5.608000000     3.457000000
H     2.861000000     5.467000000     3.145000000
H     3.717000000     5.400000000     4.391000000
O    -0.676000000     5.153000000     7.434000000
H    -0.170000000     4.715000000     6.750000000
H    -0.776000000     4.492000000     8.119000000
O     6.816000000     7.535000000     1.915000000
H     7.252000000     7.022000000     1.234000000
H     5.937000000     7.160000000     1.970000000
O     1.175000000     8.213000000    -2.035000000
H     1.093000000     9.009000000    -2.561000000
H     2.048000000     7.879000000    -2.243000000
O     6.311000000     2.401000000     4.924000000
H     5.756000000     2.458000000     4.146000000
H     6.449000000     3.312000000     5.186000000
O    -2.491000000     8.747000000     0.179000000
H    -1.997000000     7.927000000     0.208000000
H    -3.390000000     8.478000000    -0.014000000
O    -0.456000000     6.726000000    -0.381000000
H     0.101000000     5.974000000    -0.178000000
H    -0.006000000     7.170000000    -1.100000000
O     5.212000000     3.670000000     2.175000000
H     4.862000000     4.406000000     2.678000000
H     5.062000000     3.912000000     1.261000000
O     1.016000000     4.622000000     5.209000000
H     0.833000000     4.447000000     4.286000000
H     1.964000000     4.519000000     5.289000000
O     3.182000000     2.613000000     3.866000000
H     2.369000000     2.941000000     3.483000000
H     3.858000000     2.846000000     3.231000000
O     3.785000000     4.844000000     0.066000000
H     4.030000000     4.849000000    -0.859000000
H     2.856000000     4.611000000     0.067000000
O     0.880000000     9.364000000     1.042000000
H     0.099000000     9.549000000     0.519000000
H     1.306000000     8.637000000     0.587000000
O    -1.201000000     9.929000000     2.862000000
H    -0.347000000     9.732000000     2.477000000
H    -1.568000000     9.073000000     3.081000000
O     5.153000000     5.586000000    -2.455000000
H     6.043000000     5.635000000    -2.106000000
H     4.853000000     6.495000000    -2.475000000
O    -2.935000000     7.752000000     3.524000000
H    -2.317000000     7.024000000     3.454000000
H    -3.708000000     7.371000000     3.941000000
O     3.753000000     7.631000000     1.333000000
H     3.855000000     7.223000000     2.193000000
H     3.479000000     6.916000000     0.759000000
