215
-1471.06260
C     2.977000000    -1.697000000     4.034000000
H     3.481000000    -2.496000000     3.496000000
C     1.605000000    -1.694000000     3.913000000
C     0.868000000    -0.634000000     4.426000000
H    -0.208000000    -0.579000000     4.279000000
C     0.787000000    -2.634000000     3.047000000
O     1.476000000    -3.863000000     2.840000000
H     0.515000000    -2.245000000     2.054000000
O    -0.395000000    -2.969000000     3.726000000
C    -1.627000000    -2.992000000     3.136000000
C    -2.528000000    -1.999000000     3.376000000
H    -2.408000000    -1.266000000     4.169000000
C    -3.629000000    -1.855000000     2.538000000
O    -4.310000000    -0.720000000     2.564000000
C    -3.855000000    -2.778000000     1.512000000
C    -5.013000000    -2.555000000     0.507000000
H    -5.423000000    -3.531000000     0.241000000
C    -4.534000000    -1.709000000    -0.668000000
C    -4.064000000    -2.325000000    -1.835000000
H    -3.947000000    -3.406000000    -1.828000000
H    -5.829000000    -2.030000000     1.009000000
C    -2.995000000    -3.845000000     1.301000000
H    -3.180000000    -4.579000000     0.521000000
C    -1.863000000    -3.944000000     2.120000000
C    -0.922000000    -5.151000000     1.949000000
H    -1.539000000    -5.937000000     1.508000000
H    -0.526000000    -5.483000000     2.911000000
C     0.290000000    -4.879000000     1.001000000
C     0.273000000    -5.229000000    -0.371000000
H    -0.586000000    -5.728000000    -0.812000000
C     1.488000000    -4.409000000     1.572000000
C     2.487000000    -3.955000000     0.767000000
H     3.299000000    -3.418000000     1.250000000
C     2.319000000    -4.026000000    -0.630000000
O     3.282000000    -3.295000000    -1.322000000
C     2.872000000    -2.110000000    -1.925000000
C     4.019000000    -1.107000000    -1.915000000
C     4.236000000    -0.104000000    -2.929000000
H     3.574000000    -0.079000000    -3.791000000
C     4.876000000    -1.053000000    -0.813000000
H     4.620000000    -1.701000000     0.022000000
O     2.570000000    -2.418000000    -3.293000000
H     2.080000000    -1.615000000    -1.343000000
C     1.249000000    -4.704000000    -1.242000000
C     1.059000000    -4.830000000    -2.737000000
H     0.517000000    -5.752000000    -2.954000000
H     2.033000000    -4.933000000    -3.220000000
C     0.376000000    -3.560000000    -3.291000000
C    -1.035000000    -3.420000000    -3.566000000
H    -1.644000000    -4.271000000    -3.273000000
C     1.160000000    -2.467000000    -3.593000000
C     0.660000000    -1.348000000    -4.200000000
H     1.355000000    -0.563000000    -4.487000000
C    -0.701000000    -1.162000000    -4.349000000
O    -1.243000000     0.009000000    -4.891000000
C    -1.753000000     0.881000000    -3.902000000
C    -1.418000000     2.373000000    -4.124000000
C    -0.131000000     2.630000000    -4.573000000
H     0.568000000     1.821000000    -4.764000000
C    -2.257000000     3.417000000    -3.717000000
H    -3.243000000     3.161000000    -3.337000000
O    -3.161000000     0.687000000    -3.846000000
H    -1.415000000     0.672000000    -2.876000000
C    -1.569000000    -2.229000000    -4.055000000
C    -3.056000000    -2.127000000    -4.251000000
H    -3.519000000    -3.090000000    -4.478000000
H    -3.202000000    -1.471000000    -5.112000000
C    -3.596000000    -1.527000000    -2.932000000
C    -3.645000000    -0.119000000    -2.825000000
C    -4.231000000     0.461000000    -1.670000000
H    -4.163000000     1.542000000    -1.576000000
C    -4.468000000    -0.354000000    -0.568000000
O    -4.824000000     0.244000000     0.615000000
C    -3.854000000     0.235000000     1.671000000
H    -2.888000000    -0.093000000     1.259000000
C    -3.676000000     1.660000000     2.253000000
C    -3.827000000     1.862000000     3.614000000
H    -4.101000000     1.033000000     4.261000000
C    -3.341000000     2.718000000     1.454000000
H    -3.091000000     2.588000000     0.405000000
C    -3.127000000     3.980000000     2.011000000
O    -2.765000000     5.062000000     1.198000000
C    -3.302000000     4.194000000     3.408000000
H    -3.165000000     5.197000000     3.804000000
C    -3.543000000     3.081000000     4.197000000
O    -3.505000000     3.169000000     5.563000000
C    -2.609000000     2.341000000     6.191000000
C    -1.335000000     2.281000000     5.565000000
H    -1.041000000     2.881000000     4.708000000
C    -2.922000000     1.554000000     7.306000000
H    -3.950000000     1.485000000     7.654000000
C    -1.967000000     0.742000000     7.930000000
H    -2.077000000     0.300000000     8.917000000
C    -0.733000000     0.697000000     7.336000000
H     0.048000000     0.132000000     7.839000000
C    -0.441000000     1.367000000     6.122000000
O     0.852000000     1.369000000     5.684000000
C     1.552000000     0.342000000     5.135000000
C     2.928000000     0.367000000     5.203000000
H     3.431000000     1.186000000     5.710000000
C     3.692000000    -0.692000000     4.662000000
O     5.042000000    -0.659000000     4.713000000
C     5.811000000    -1.181000000     3.681000000
C     5.882000000    -0.474000000     2.397000000
H     5.236000000     0.393000000     2.287000000
C     6.793000000    -2.219000000     3.825000000
H     6.868000000    -2.847000000     4.709000000
C     7.651000000    -2.685000000     2.781000000
H     8.244000000    -3.579000000     2.956000000
C     7.676000000    -1.979000000     1.579000000
H     8.283000000    -2.355000000     0.760000000
C     6.826000000    -0.915000000     1.416000000
O     6.909000000    -0.174000000     0.216000000
C     5.979000000    -0.156000000    -0.799000000
C     6.187000000     0.723000000    -1.864000000
H     6.977000000     1.470000000    -1.831000000
C     5.303000000     0.820000000    -2.885000000
O     5.545000000     1.805000000    -3.806000000
C     4.548000000     2.118000000    -4.684000000
C     3.593000000     3.096000000    -4.355000000
H     3.685000000     3.650000000    -3.424000000
C     4.436000000     1.422000000    -5.905000000
H     5.044000000     0.538000000    -6.080000000
C     3.399000000     1.736000000    -6.764000000
H     3.180000000     1.227000000    -7.699000000
C     2.502000000     2.753000000    -6.416000000
H     1.683000000     3.023000000    -7.078000000
C     2.586000000     3.370000000    -5.227000000
O     1.637000000     4.329000000    -4.965000000
C     0.324000000     3.968000000    -4.650000000
C    -0.592000000     5.000000000    -4.305000000
H    -0.284000000     6.023000000    -4.507000000
C    -1.840000000     4.719000000    -3.795000000
O    -2.713000000     5.751000000    -3.479000000
C    -3.381000000     5.883000000    -2.253000000
C    -4.648000000     6.459000000    -2.198000000
H    -5.187000000     6.749000000    -3.097000000
C    -5.364000000     6.474000000    -1.007000000
H    -6.359000000     6.909000000    -0.952000000
C    -4.725000000     6.025000000     0.140000000
H    -5.218000000     6.006000000     1.109000000
C    -3.445000000     5.465000000     0.092000000
C    -2.814000000     5.366000000    -1.151000000
H    -1.799000000     4.982000000    -1.088000000
C     0.049000000     2.821000000     1.114000000
H    -0.053000000     3.482000000     1.970000000
C    -0.387000000     1.512000000     1.118000000
H    -0.685000000     1.119000000     2.087000000
C    -0.244000000     0.694000000    -0.019000000
H    -0.538000000    -0.357000000    -0.050000000
C     0.343000000     1.152000000    -1.186000000
H     0.579000000     0.482000000    -2.010000000
C     0.735000000     2.525000000    -1.196000000
H     1.280000000     2.875000000    -2.068000000
C     0.602000000     3.331000000    -0.087000000
C     1.205000000     4.666000000    -0.098000000
O     1.826000000     5.109000000    -0.996000000
O     1.214000000     5.314000000     0.966000000
O     2.372000000     3.785000000     5.574000000
H     1.956000000     4.059000000     6.391000000
H     1.833000000     3.058000000     5.262000000
O    -0.550000000     6.086000000     5.238000000
H    -0.133000000     5.961000000     6.090000000
H     0.168000000     6.025000000     4.608000000
O     0.955000000     9.032000000     2.479000000
H     1.513000000     8.399000000     2.027000000
H     0.242000000     8.505000000     2.842000000
O    -0.664000000     7.379000000     0.394000000
H    -0.798000000     7.576000000     1.321000000
H    -0.014000000     6.677000000     0.389000000
O     7.182000000     3.943000000    -0.269000000
H     7.198000000     4.718000000    -0.829000000
H     6.273000000     3.879000000     0.026000000
O     1.967000000     7.486000000    -5.510000000
H     1.648000000     7.678000000    -4.628000000
H     1.663000000     6.595000000    -5.686000000
O    -0.739000000     9.853000000    -0.468000000
H    -0.649000000     8.939000000    -0.200000000
H    -1.588000000    10.123000000    -0.118000000
O    -1.289000000     8.036000000     3.433000000
H    -1.124000000     7.480000000     4.195000000
H    -1.600000000     8.862000000     3.802000000
O     3.943000000     7.800000000     3.559000000
H     4.038000000     8.516000000     4.187000000
H     3.686000000     7.047000000     4.090000000
O     2.813000000     9.034000000    -1.046000000
H     3.203000000     8.540000000    -0.326000000
H     1.942000000     9.273000000    -0.729000000
O     2.663000000     7.407000000     1.086000000
H     2.150000000     6.614000000     0.932000000
H     3.290000000     7.160000000     1.765000000
O     1.376000000     5.685000000     3.559000000
H     1.816000000     4.861000000     3.762000000
H     1.163000000     5.620000000     2.628000000
O     4.657000000     9.710000000     1.481000000
H     4.691000000     9.008000000     2.131000000
H     4.133000000    10.396000000     1.896000000
O     6.456000000     6.995000000     1.214000000
H     6.430000000     7.951000000     1.170000000
H     5.940000000     6.707000000     0.460000000
O     4.513000000     4.644000000     4.111000000
H     3.994000000     4.165000000     4.757000000
H     4.092000000     4.450000000     3.274000000
O     3.546000000     3.845000000     1.453000000
H     3.530000000     3.379000000     0.617000000
H     2.785000000     4.424000000     1.418000000
O     5.458000000     7.468000000    -2.989000000
H     6.155000000     8.100000000    -3.163000000
H     4.688000000     8.005000000    -2.803000000
O     4.732000000     5.949000000    -0.786000000
H     3.820000000     5.667000000    -0.850000000
H     4.822000000     6.625000000    -1.458000000
O     1.315000000     7.123000000    -2.690000000
H     1.722000000     7.797000000    -2.145000000
H     1.460000000     6.307000000    -2.210000000
