215
-1478.67381
C     2.793000000    -1.551000000     3.964000000
H     3.226000000    -2.009000000     3.078000000
C     1.404000000    -1.649000000     4.301000000
C     0.878000000    -0.869000000     5.338000000
H    -0.178000000    -0.925000000     5.588000000
C     0.520000000    -2.544000000     3.431000000
O     1.171000000    -3.760000000     3.074000000
H     0.258000000    -1.855000000     2.614000000
O    -0.679000000    -2.936000000     4.073000000
C    -1.845000000    -2.847000000     3.314000000
C    -2.518000000    -1.709000000     3.513000000
H    -2.215000000    -0.910000000     4.186000000
C    -3.602000000    -1.456000000     2.690000000
O    -4.107000000    -0.136000000     2.758000000
C    -3.988000000    -2.344000000     1.716000000
C    -5.126000000    -1.965000000     0.749000000
H    -5.512000000    -2.907000000     0.353000000
C    -4.507000000    -1.203000000    -0.465000000
C    -4.066000000    -1.917000000    -1.553000000
H    -4.110000000    -3.003000000    -1.540000000
H    -5.906000000    -1.376000000     1.235000000
C    -3.310000000    -3.553000000     1.567000000
H    -3.574000000    -4.213000000     0.744000000
C    -2.194000000    -3.823000000     2.321000000
C    -1.302000000    -5.053000000     2.026000000
H    -1.901000000    -5.852000000     1.584000000
H    -0.861000000    -5.334000000     2.985000000
C    -0.112000000    -4.645000000     1.147000000
C    -0.228000000    -4.950000000    -0.246000000
H    -1.184000000    -5.288000000    -0.639000000
C     1.037000000    -4.016000000     1.680000000
C     2.097000000    -3.800000000     0.786000000
H     2.953000000    -3.333000000     1.266000000
C     2.002000000    -4.175000000    -0.514000000
O     2.945000000    -3.692000000    -1.398000000
C     2.621000000    -2.440000000    -2.024000000
C     3.878000000    -1.532000000    -1.949000000
C     4.170000000    -0.622000000    -3.028000000
H     3.279000000    -0.469000000    -3.632000000
C     4.785000000    -1.615000000    -0.915000000
H     4.623000000    -2.345000000    -0.126000000
O     2.295000000    -2.677000000    -3.437000000
H     1.745000000    -2.016000000    -1.511000000
C     0.855000000    -4.760000000    -1.030000000
C     0.732000000    -4.854000000    -2.551000000
H     0.160000000    -5.724000000    -2.878000000
H     1.684000000    -5.119000000    -3.016000000
C     0.155000000    -3.613000000    -3.240000000
C    -1.267000000    -3.393000000    -3.302000000
H    -1.928000000    -4.010000000    -2.699000000
C     0.980000000    -2.687000000    -3.846000000
C     0.538000000    -1.552000000    -4.447000000
H     1.270000000    -0.780000000    -4.670000000
C    -0.870000000    -1.307000000    -4.561000000
O    -1.278000000    -0.002000000    -4.870000000
C    -1.663000000     0.928000000    -3.901000000
C    -1.232000000     2.352000000    -4.179000000
C     0.057000000     2.508000000    -4.713000000
H     0.562000000     1.613000000    -5.068000000
C    -1.991000000     3.500000000    -3.930000000
H    -2.977000000     3.360000000    -3.495000000
O    -3.113000000     0.841000000    -3.711000000
H    -1.208000000     0.635000000    -2.943000000
C    -1.787000000    -2.256000000    -4.026000000
C    -3.214000000    -2.001000000    -3.908000000
H    -3.796000000    -2.917000000    -4.026000000
H    -3.588000000    -1.418000000    -4.752000000
C    -3.641000000    -1.238000000    -2.674000000
C    -3.559000000     0.138000000    -2.617000000
C    -3.892000000     0.881000000    -1.511000000
H    -3.887000000     1.963000000    -1.413000000
C    -4.435000000     0.179000000    -0.439000000
O    -4.694000000     0.828000000     0.697000000
C    -3.670000000     0.732000000     1.701000000
H    -2.759000000     0.305000000     1.255000000
C    -3.416000000     2.154000000     2.163000000
C    -2.823000000     2.275000000     3.415000000
H    -2.697000000     1.421000000     4.076000000
C    -3.440000000     3.247000000     1.291000000
H    -3.824000000     3.186000000     0.276000000
C    -2.864000000     4.474000000     1.668000000
O    -2.809000000     5.577000000     0.872000000
C    -2.449000000     4.594000000     3.012000000
H    -2.135000000     5.555000000     3.412000000
C    -2.429000000     3.512000000     3.884000000
O    -2.063000000     3.760000000     5.192000000
C    -1.665000000     2.741000000     6.090000000
C    -0.456000000     2.065000000     5.957000000
H     0.236000000     2.161000000     5.124000000
C    -2.553000000     2.490000000     7.148000000
H    -3.510000000     2.981000000     7.307000000
C    -2.127000000     1.570000000     8.166000000
H    -2.711000000     1.388000000     9.064000000
C    -0.922000000     0.964000000     8.059000000
H    -0.511000000     0.453000000     8.926000000
C    -0.066000000     1.195000000     7.021000000
O     1.213000000     0.751000000     7.051000000
C     1.732000000     0.025000000     5.983000000
C     3.098000000     0.011000000     5.768000000
H     3.708000000     0.567000000     6.475000000
C     3.602000000    -0.788000000     4.767000000
O     4.957000000    -0.716000000     4.569000000
C     5.585000000    -1.401000000     3.577000000
C     5.839000000    -0.694000000     2.444000000
H     5.378000000     0.274000000     2.264000000
C     6.060000000    -2.722000000     3.778000000
H     5.943000000    -3.233000000     4.731000000
C     6.731000000    -3.301000000     2.684000000
H     6.949000000    -4.364000000     2.749000000
C     7.021000000    -2.599000000     1.495000000
H     7.572000000    -3.027000000     0.661000000
C     6.491000000    -1.313000000     1.387000000
O     6.784000000    -0.624000000     0.178000000
C     5.924000000    -0.802000000    -0.925000000
C     6.126000000     0.153000000    -1.897000000
H     7.002000000     0.779000000    -1.752000000
C     5.300000000     0.206000000    -3.008000000
O     5.602000000     1.151000000    -3.964000000
C     4.627000000     1.447000000    -4.922000000
C     3.770000000     2.546000000    -4.743000000
H     3.862000000     3.171000000    -3.859000000
C     4.642000000     0.843000000    -6.209000000
H     5.340000000     0.023000000    -6.362000000
C     3.696000000     1.211000000    -7.209000000
H     3.596000000     0.783000000    -8.204000000
C     2.754000000     2.214000000    -6.898000000
H     2.035000000     2.509000000    -7.659000000
C     2.755000000     2.856000000    -5.655000000
O     1.878000000     3.921000000    -5.460000000
C     0.666000000     3.785000000    -4.790000000
C    -0.101000000     4.926000000    -4.517000000
H     0.244000000     5.957000000    -4.505000000
C    -1.475000000     4.745000000    -4.129000000
O    -2.314000000     5.768000000    -3.944000000
C    -3.099000000     5.821000000    -2.753000000
C    -4.465000000     6.067000000    -2.861000000
H    -4.866000000     6.121000000    -3.870000000
C    -5.341000000     6.117000000    -1.760000000
H    -6.411000000     6.292000000    -1.839000000
C    -4.732000000     5.886000000    -0.513000000
H    -5.390000000     5.828000000     0.350000000
C    -3.365000000     5.672000000    -0.339000000
C    -2.510000000     5.779000000    -1.475000000
H    -1.437000000     5.861000000    -1.325000000
C     0.229000000     2.700000000     1.416000000
H     0.217000000     3.085000000     2.433000000
C     0.042000000     1.340000000     1.163000000
H    -0.327000000     0.656000000     1.922000000
C     0.151000000     0.802000000    -0.135000000
H    -0.047000000    -0.269000000    -0.286000000
C     0.578000000     1.659000000    -1.106000000
H     0.656000000     1.257000000    -2.113000000
C     0.918000000     2.955000000    -0.859000000
H     1.408000000     3.517000000    -1.650000000
C     0.744000000     3.537000000     0.412000000
C     1.027000000     4.960000000     0.816000000
O     1.537000000     5.656000000    -0.040000000
O     1.028000000     5.389000000     1.960000000
O     4.023000000     2.943000000     4.172000000
H     3.111000000     3.175000000     4.350000000
H     3.986000000     2.431000000     3.364000000
O     0.247000000     7.768000000     3.598000000
H     0.912000000     8.147000000     4.172000000
H     0.596000000     6.909000000     3.361000000
O     1.843000000     4.229000000     7.011000000
H     1.997000000     4.589000000     6.138000000
H     1.507000000     3.347000000     6.851000000
O     3.912000000     4.666000000    -1.846000000
H     3.098000000     4.763000000    -1.352000000
H     4.499000000     4.200000000    -1.251000000
O    -1.703000000     9.207000000     2.373000000
H    -1.114000000     8.796000000     3.006000000
H    -1.237000000     9.148000000     1.539000000
O    -0.201000000     6.712000000     6.168000000
H    -0.867000000     7.042000000     5.565000000
H     0.298000000     6.080000000     5.651000000
O     3.402000000    10.239000000     1.607000000
H     3.266000000    10.543000000     2.504000000
H     3.821000000     9.383000000     1.705000000
O     3.550000000     7.513000000     4.074000000
H     3.723000000     7.503000000     5.016000000
H     4.358000000     7.849000000     3.686000000
O     0.381000000     8.563000000     0.698000000
H     0.774000000     7.976000000     0.052000000
H     0.659000000     8.210000000     1.543000000
O     3.391000000     6.947000000     1.334000000
H     2.660000000     6.463000000     0.950000000
H     3.122000000     7.109000000     2.238000000
O     2.095000000     5.099000000     4.288000000
H     2.875000000     5.601000000     4.051000000
H     1.648000000     4.944000000     3.455000000
O     5.437000000     5.761000000     0.416000000
H     4.652000000     6.182000000     0.767000000
H     5.665000000     6.283000000    -0.353000000
O     6.273000000     4.667000000     3.795000000
H     5.374000000     4.339000000     3.827000000
H     6.577000000     4.620000000     4.702000000
O     3.144000000     1.782000000     1.870000000
H     2.273000000     1.969000000     1.519000000
H     3.739000000     2.284000000     1.314000000
O     4.417000000     6.319000000    -4.093000000
H     4.324000000     5.613000000    -3.453000000
H     3.518000000     6.529000000    -4.348000000
O     1.229000000     8.961000000    -4.239000000
H     1.465000000     8.490000000    -3.439000000
H     0.710000000     8.333000000    -4.741000000
O     5.419000000     3.046000000     0.733000000
H     5.517000000     3.989000000     0.869000000
H     6.279000000     2.683000000     0.943000000
O     2.131000000     7.208000000    -1.910000000
H     3.020000000     7.278000000    -1.563000000
H     1.678000000     6.631000000    -1.295000000
O    -3.785000000     7.458000000     2.769000000
H    -3.323000000     8.253000000     2.504000000
H    -3.768000000     6.900000000     1.992000000
