215
-1461.13236
C     2.307000000    -1.602000000     4.302000000
H     2.549000000    -2.508000000     3.751000000
C     0.946000000    -1.194000000     4.257000000
C     0.557000000    -0.054000000     4.957000000
H    -0.507000000     0.167000000     4.982000000
C    -0.056000000    -2.054000000     3.528000000
O     0.493000000    -3.351000000     3.201000000
H    -0.324000000    -1.506000000     2.612000000
O    -1.274000000    -2.267000000     4.298000000
C    -2.426000000    -2.161000000     3.613000000
C    -2.953000000    -0.845000000     3.457000000
H    -2.535000000    -0.056000000     4.077000000
C    -4.037000000    -0.581000000     2.557000000
O    -4.327000000     0.784000000     2.578000000
C    -4.474000000    -1.580000000     1.606000000
C    -5.506000000    -1.161000000     0.577000000
H    -6.124000000    -2.001000000     0.255000000
C    -4.978000000    -0.539000000    -0.652000000
C    -4.695000000    -1.327000000    -1.762000000
H    -4.927000000    -2.384000000    -1.655000000
H    -6.192000000    -0.416000000     0.985000000
C    -3.866000000    -2.867000000     1.707000000
H    -4.040000000    -3.538000000     0.870000000
C    -2.855000000    -3.137000000     2.596000000
C    -2.197000000    -4.443000000     2.563000000
H    -2.815000000    -5.201000000     2.076000000
H    -1.926000000    -4.792000000     3.561000000
C    -1.003000000    -4.368000000     1.549000000
C    -1.139000000    -4.891000000     0.296000000
H    -2.090000000    -5.359000000     0.056000000
C     0.223000000    -3.956000000     2.022000000
C     1.321000000    -4.010000000     1.139000000
H     2.301000000    -3.627000000     1.412000000
C     1.121000000    -4.325000000    -0.189000000
O     2.210000000    -4.211000000    -0.971000000
C     2.291000000    -3.100000000    -1.844000000
C     3.707000000    -2.590000000    -1.922000000
C     4.145000000    -1.934000000    -3.074000000
H     3.558000000    -1.938000000    -3.988000000
C     4.499000000    -2.639000000    -0.769000000
H     4.178000000    -3.162000000     0.129000000
O     1.860000000    -3.643000000    -3.128000000
H     1.673000000    -2.224000000    -1.598000000
C    -0.101000000    -4.820000000    -0.629000000
C    -0.275000000    -5.233000000    -2.127000000
H    -1.096000000    -5.952000000    -2.160000000
H     0.648000000    -5.737000000    -2.422000000
C    -0.546000000    -3.968000000    -2.951000000
C    -1.801000000    -3.463000000    -3.013000000
H    -2.614000000    -4.082000000    -2.641000000
C     0.559000000    -3.338000000    -3.493000000
C     0.388000000    -2.122000000    -4.157000000
H     1.192000000    -1.715000000    -4.763000000
C    -0.923000000    -1.594000000    -4.193000000
O    -1.123000000    -0.302000000    -4.790000000
C    -1.223000000     0.679000000    -3.771000000
C    -0.234000000     1.882000000    -3.969000000
C     1.034000000     1.702000000    -4.446000000
H     1.463000000     0.776000000    -4.818000000
C    -0.628000000     3.142000000    -3.470000000
H    -1.601000000     3.313000000    -3.017000000
O    -2.626000000     1.112000000    -3.746000000
H    -0.990000000     0.279000000    -2.774000000
C    -2.001000000    -2.256000000    -3.673000000
C    -3.476000000    -1.752000000    -3.959000000
H    -4.147000000    -2.612000000    -3.908000000
H    -3.573000000    -1.261000000    -4.930000000
C    -3.903000000    -0.811000000    -2.807000000
C    -3.508000000     0.545000000    -2.799000000
C    -3.882000000     1.323000000    -1.725000000
H    -3.719000000     2.394000000    -1.803000000
C    -4.569000000     0.809000000    -0.652000000
O    -4.775000000     1.590000000     0.433000000
C    -3.824000000     1.601000000     1.483000000
H    -2.921000000     1.077000000     1.139000000
C    -3.572000000     3.036000000     1.871000000
C    -3.192000000     3.320000000     3.183000000
H    -3.122000000     2.487000000     3.877000000
C    -3.561000000     4.100000000     0.975000000
H    -3.811000000     3.859000000    -0.055000000
C    -3.089000000     5.349000000     1.369000000
O    -3.106000000     6.420000000     0.532000000
C    -2.697000000     5.562000000     2.683000000
H    -2.398000000     6.539000000     3.055000000
C    -2.783000000     4.566000000     3.596000000
O    -2.520000000     4.823000000     4.912000000
C    -1.917000000     3.903000000     5.803000000
C    -0.695000000     3.357000000     5.451000000
H    -0.253000000     3.579000000     4.483000000
C    -2.550000000     3.477000000     7.014000000
H    -3.518000000     3.893000000     7.282000000
C    -1.883000000     2.583000000     7.856000000
H    -2.325000000     2.227000000     8.783000000
C    -0.663000000     2.039000000     7.516000000
H    -0.145000000     1.319000000     8.143000000
C    -0.057000000     2.443000000     6.276000000
O     1.235000000     1.965000000     6.017000000
C     1.538000000     0.761000000     5.463000000
C     2.913000000     0.429000000     5.455000000
H     3.679000000     1.087000000     5.858000000
C     3.283000000    -0.772000000     4.912000000
O     4.676000000    -1.036000000     4.726000000
C     5.247000000    -1.947000000     3.848000000
C     5.445000000    -1.622000000     2.521000000
H     5.116000000    -0.630000000     2.224000000
C     5.623000000    -3.196000000     4.339000000
H     5.488000000    -3.405000000     5.397000000
C     6.215000000    -4.173000000     3.454000000
H     6.443000000    -5.087000000     3.998000000
C     6.406000000    -3.787000000     2.119000000
H     6.835000000    -4.514000000     1.434000000
C     6.061000000    -2.518000000     1.698000000
O     6.503000000    -2.119000000     0.457000000
C     5.762000000    -2.038000000    -0.770000000
C     6.235000000    -1.426000000    -1.931000000
H     7.273000000    -1.105000000    -1.984000000
C     5.412000000    -1.342000000    -3.041000000
O     5.997000000    -0.785000000    -4.152000000
C     5.294000000    -0.044000000    -5.031000000
C     4.356000000     0.932000000    -4.660000000
H     4.106000000     0.918000000    -3.602000000
C     5.516000000    -0.187000000    -6.361000000
H     6.283000000    -0.882000000    -6.692000000
C     4.840000000     0.559000000    -7.306000000
H     4.993000000     0.350000000    -8.361000000
C     4.096000000     1.663000000    -6.942000000
H     3.781000000     2.475000000    -7.593000000
C     3.820000000     1.844000000    -5.614000000
O     3.073000000     2.940000000    -5.182000000
C     1.834000000     2.881000000    -4.571000000
C     1.372000000     4.121000000    -4.193000000
H     2.067000000     4.954000000    -4.129000000
C     0.158000000     4.270000000    -3.632000000
O    -0.216000000     5.473000000    -3.080000000
C    -1.480000000     5.749000000    -2.659000000
C    -2.514000000     6.021000000    -3.536000000
H    -2.447000000     5.810000000    -4.600000000
C    -3.754000000     6.312000000    -3.048000000
H    -4.599000000     6.459000000    -3.715000000
C    -3.910000000     6.492000000    -1.688000000
H    -4.822000000     6.865000000    -1.230000000
C    -2.926000000     6.223000000    -0.767000000
C    -1.634000000     5.853000000    -1.260000000
H    -0.763000000     5.773000000    -0.616000000
C     0.182000000     2.198000000     1.454000000
H    -0.010000000     2.718000000     2.389000000
C    -0.271000000     0.889000000     1.273000000
H    -0.845000000     0.557000000     2.134000000
C    -0.102000000     0.192000000     0.110000000
H    -0.454000000    -0.779000000    -0.201000000
C     0.669000000     0.753000000    -0.873000000
H     0.946000000     0.238000000    -1.789000000
C     1.215000000     2.009000000    -0.692000000
H     1.917000000     2.446000000    -1.398000000
C     0.919000000     2.783000000     0.431000000
C     1.487000000     4.185000000     0.639000000
O     2.124000000     4.738000000    -0.251000000
O     1.534000000     4.589000000     1.796000000
O     5.701000000     4.524000000     5.090000000
H     4.772000000     4.291000000     5.115000000
H     5.791000000     5.064000000     4.305000000
O     0.672000000     7.296000000     5.899000000
H     0.476000000     6.921000000     5.041000000
H     0.280000000     6.684000000     6.523000000
O     2.848000000     4.484000000     6.761000000
H     2.740000000     4.569000000     5.813000000
H     1.961000000     4.568000000     7.111000000
O     0.092000000     6.573000000     3.330000000
H     0.727000000     7.218000000     3.018000000
H     0.251000000     5.799000000     2.791000000
O     4.799000000     8.450000000     2.291000000
H     4.376000000     9.163000000     1.812000000
H     4.082000000     8.008000000     2.745000000
O     6.240000000     1.788000000     0.922000000
H     5.538000000     1.931000000     1.558000000
H     6.589000000     2.662000000     0.751000000
O     3.023000000     7.281000000    -1.378000000
H     2.519000000     7.776000000    -2.024000000
H     2.592000000     6.427000000    -1.341000000
O     3.003000000     4.843000000     3.981000000
H     2.375000000     4.743000000     3.265000000
H     3.591000000     5.539000000     3.689000000
O     4.500000000     3.820000000    -0.550000000
H     3.574000000     4.009000000    -0.404000000
H     4.502000000     3.009000000    -1.059000000
O     1.893000000     7.185000000     1.191000000
H     1.785000000     6.235000000     1.231000000
H     2.555000000     7.323000000     0.514000000
O     3.330000000     7.783000000     4.510000000
H     2.450000000     7.878000000     4.873000000
H     3.740000000     8.638000000     4.645000000
O     5.715000000     5.827000000     2.768000000
H     6.092000000     5.426000000     1.985000000
H     5.474000000     6.711000000     2.493000000
O     5.756000000     6.177000000    -1.401000000
H     4.849000000     6.468000000    -1.308000000
H     5.757000000     5.282000000    -1.060000000
O     4.795000000     1.053000000    -1.142000000
H     5.111000000     1.506000000    -0.361000000
H     5.258000000     0.215000000    -1.137000000
O     0.483000000     7.990000000    -3.904000000
H    -0.343000000     8.449000000    -3.754000000
H     0.223000000     7.101000000    -4.145000000
O     0.761000000     9.743000000     1.142000000
H     1.210000000     8.900000000     1.204000000
H     0.979000000    10.191000000     1.960000000
O    -1.502000000     9.159000000    -0.344000000
H    -2.110000000     8.538000000     0.057000000
H    -0.915000000     9.413000000     0.367000000
O     4.219000000     1.997000000     2.300000000
H     4.094000000     2.840000000     1.864000000
H     3.616000000     2.020000000     3.043000000
O     5.609000000     5.999000000    -4.159000000
H     5.510000000     5.896000000    -3.213000000
H     6.096000000     5.222000000    -4.434000000
