215
-1448.71396
C     2.348000000    -1.801000000     4.390000000
H     2.670000000    -2.676000000     3.830000000
C     0.968000000    -1.485000000     4.355000000
C     0.636000000    -0.272000000     5.034000000
H    -0.392000000     0.077000000     4.973000000
C    -0.113000000    -2.262000000     3.597000000
O     0.364000000    -3.557000000     3.304000000
H    -0.262000000    -1.679000000     2.676000000
O    -1.413000000    -2.246000000     4.226000000
C    -2.547000000    -1.997000000     3.527000000
C    -3.046000000    -0.652000000     3.399000000
H    -2.653000000     0.130000000     4.043000000
C    -4.093000000    -0.333000000     2.516000000
O    -4.522000000     0.938000000     2.465000000
C    -4.487000000    -1.295000000     1.590000000
C    -5.551000000    -1.060000000     0.556000000
H    -6.097000000    -1.996000000     0.421000000
C    -4.952000000    -0.408000000    -0.663000000
C    -4.575000000    -1.299000000    -1.696000000
H    -4.665000000    -2.378000000    -1.603000000
H    -6.314000000    -0.390000000     0.957000000
C    -3.864000000    -2.566000000     1.588000000
H    -3.977000000    -3.166000000     0.689000000
C    -2.916000000    -2.969000000     2.623000000
C    -2.298000000    -4.376000000     2.540000000
H    -3.029000000    -5.131000000     2.243000000
H    -1.821000000    -4.609000000     3.494000000
C    -1.144000000    -4.380000000     1.583000000
C    -1.249000000    -4.749000000     0.216000000
H    -2.146000000    -5.109000000    -0.280000000
C     0.134000000    -3.968000000     1.994000000
C     1.255000000    -4.075000000     1.219000000
H     2.250000000    -3.853000000     1.598000000
C     1.085000000    -4.373000000    -0.071000000
O     2.208000000    -4.280000000    -0.868000000
C     2.251000000    -3.176000000    -1.706000000
C     3.690000000    -2.626000000    -1.764000000
C     4.142000000    -1.912000000    -2.921000000
H     3.455000000    -1.950000000    -3.762000000
C     4.509000000    -2.612000000    -0.651000000
H     4.126000000    -3.084000000     0.250000000
O     1.783000000    -3.512000000    -2.951000000
H     1.588000000    -2.396000000    -1.303000000
C    -0.105000000    -4.737000000    -0.613000000
C    -0.310000000    -5.178000000    -2.075000000
H    -1.114000000    -5.916000000    -2.127000000
H     0.566000000    -5.747000000    -2.394000000
C    -0.588000000    -3.944000000    -2.858000000
C    -1.876000000    -3.433000000    -2.992000000
H    -2.643000000    -4.149000000    -2.704000000
C     0.522000000    -3.180000000    -3.324000000
C     0.261000000    -1.972000000    -4.079000000
H     1.119000000    -1.469000000    -4.517000000
C    -1.018000000    -1.430000000    -4.172000000
O    -1.207000000    -0.243000000    -4.777000000
C    -1.531000000     0.850000000    -3.925000000
C    -0.625000000     2.033000000    -4.364000000
C     0.585000000     1.852000000    -5.032000000
H     0.846000000     0.847000000    -5.353000000
C    -0.882000000     3.245000000    -3.777000000
H    -1.688000000     3.399000000    -3.064000000
O    -2.933000000     1.153000000    -4.026000000
H    -1.301000000     0.556000000    -2.890000000
C    -2.093000000    -2.255000000    -3.651000000
C    -3.549000000    -1.747000000    -3.895000000
H    -4.275000000    -2.563000000    -3.909000000
H    -3.438000000    -1.295000000    -4.883000000
C    -3.991000000    -0.765000000    -2.829000000
C    -3.777000000     0.625000000    -2.959000000
C    -4.118000000     1.492000000    -1.920000000
H    -3.850000000     2.543000000    -1.986000000
C    -4.755000000     0.992000000    -0.778000000
O    -4.900000000     1.873000000     0.325000000
C    -3.929000000     1.718000000     1.387000000
H    -3.087000000     1.200000000     0.905000000
C    -3.430000000     3.058000000     1.933000000
C    -3.220000000     3.238000000     3.310000000
H    -3.566000000     2.426000000     3.944000000
C    -3.241000000     4.144000000     1.054000000
H    -3.407000000     4.080000000    -0.018000000
C    -2.692000000     5.310000000     1.567000000
O    -2.386000000     6.391000000     0.743000000
C    -2.497000000     5.416000000     2.920000000
H    -2.048000000     6.332000000     3.295000000
C    -2.755000000     4.428000000     3.869000000
O    -2.573000000     4.581000000     5.219000000
C    -1.843000000     3.677000000     5.940000000
C    -0.655000000     3.145000000     5.475000000
H    -0.325000000     3.390000000     4.469000000
C    -2.331000000     3.439000000     7.228000000
H    -3.246000000     3.948000000     7.521000000
C    -1.688000000     2.463000000     8.008000000
H    -2.134000000     2.164000000     8.953000000
C    -0.458000000     1.899000000     7.550000000
H     0.059000000     1.165000000     8.163000000
C     0.061000000     2.268000000     6.315000000
O     1.331000000     1.801000000     5.966000000
C     1.596000000     0.522000000     5.586000000
C     2.942000000     0.179000000     5.635000000
H     3.606000000     0.811000000     6.219000000
C     3.360000000    -0.930000000     4.872000000
O     4.741000000    -1.290000000     4.804000000
C     5.321000000    -2.173000000     3.817000000
C     5.757000000    -1.639000000     2.617000000
H     5.765000000    -0.571000000     2.416000000
C     5.402000000    -3.553000000     4.200000000
H     5.116000000    -3.908000000     5.187000000
C     6.057000000    -4.415000000     3.185000000
H     6.084000000    -5.482000000     3.391000000
C     6.421000000    -3.883000000     1.955000000
H     6.761000000    -4.593000000     1.205000000
C     6.278000000    -2.518000000     1.684000000
O     6.687000000    -2.001000000     0.443000000
C     5.855000000    -2.073000000    -0.692000000
C     6.286000000    -1.345000000    -1.793000000
H     7.291000000    -0.934000000    -1.728000000
C     5.438000000    -1.300000000    -2.922000000
O     5.879000000    -0.704000000    -4.082000000
C     5.205000000    -0.133000000    -5.109000000
C     4.369000000     0.974000000    -4.872000000
H     4.382000000     1.475000000    -3.907000000
C     5.328000000    -0.649000000    -6.333000000
H     6.022000000    -1.477000000    -6.454000000
C     4.544000000    -0.154000000    -7.375000000
H     4.618000000    -0.557000000    -8.382000000
C     3.724000000     0.942000000    -7.134000000
H     3.213000000     1.376000000    -7.990000000
C     3.629000000     1.567000000    -5.930000000
O     2.950000000     2.722000000    -5.698000000
C     1.647000000     2.826000000    -4.998000000
C     1.267000000     4.040000000    -4.498000000
H     1.971000000     4.865000000    -4.558000000
C     0.060000000     4.282000000    -3.890000000
O    -0.110000000     5.533000000    -3.439000000
C    -1.162000000     5.979000000    -2.688000000
C    -2.116000000     6.645000000    -3.390000000
H    -2.016000000     6.686000000    -4.472000000
C    -3.267000000     7.195000000    -2.734000000
H    -4.043000000     7.775000000    -3.227000000
C    -3.374000000     7.059000000    -1.296000000
H    -4.278000000     7.376000000    -0.783000000
C    -2.319000000     6.396000000    -0.637000000
C    -1.207000000     5.891000000    -1.273000000
H    -0.311000000     5.600000000    -0.731000000
C     0.307000000     2.448000000     1.210000000
H     0.291000000     2.917000000     2.190000000
C    -0.384000000     1.270000000     0.962000000
H    -0.902000000     0.834000000     1.813000000
C    -0.286000000     0.661000000    -0.304000000
H    -0.782000000    -0.267000000    -0.478000000
C     0.532000000     1.237000000    -1.321000000
H     0.662000000     0.832000000    -2.321000000
C     1.089000000     2.499000000    -1.118000000
H     1.707000000     2.877000000    -1.928000000
C     0.992000000     3.089000000     0.117000000
C     1.636000000     4.422000000     0.319000000
O     2.124000000     5.069000000    -0.582000000
O     2.030000000     4.670000000     1.440000000
O     5.235000000     4.513000000     5.551000000
H     4.682000000     3.982000000     4.978000000
H     5.524000000     3.907000000     6.234000000
O     0.131000000     7.244000000     5.040000000
H     0.464000000     6.631000000     4.385000000
H     0.162000000     6.756000000     5.863000000
O     1.553000000     5.181000000     4.048000000
H     1.891000000     4.369000000     4.427000000
H     1.853000000     5.165000000     3.139000000
O     5.040000000     1.563000000     1.279000000
H     4.197000000     1.114000000     1.346000000
H     4.940000000     2.341000000     1.828000000
O     1.940000000     7.312000000    -2.063000000
H     1.667000000     7.075000000    -2.950000000
H     1.928000000     6.485000000    -1.580000000
O     4.284000000     3.867000000     2.710000000
H     3.518000000     4.165000000     2.219000000
H     4.811000000     4.657000000     2.834000000
O     7.856000000     6.183000000    -0.321000000
H     8.542000000     5.571000000    -0.054000000
H     7.218000000     6.154000000     0.392000000
O     0.402000000     9.144000000     3.045000000
H     0.306000000     8.602000000     3.829000000
H     0.866000000     8.585000000     2.422000000
O     3.857000000     4.466000000    -2.457000000
H     3.260000000     4.767000000    -1.772000000
H     4.313000000     3.720000000    -2.068000000
O     1.803000000     7.497000000     1.038000000
H     2.052000000     6.655000000     1.419000000
H     1.896000000     7.369000000     0.094000000
O     2.686000000     5.604000000     6.899000000
H     3.430000000     5.084000000     6.593000000
H     2.163000000     5.760000000     6.113000000
O     6.107000000     6.271000000     1.743000000
H     5.516000000     6.288000000     0.990000000
H     5.914000000     7.081000000     2.216000000
O     5.964000000     7.079000000    -2.966000000
H     5.495000000     6.478000000    -3.545000000
H     6.505000000     6.511000000    -2.418000000
O     5.335000000     2.524000000    -1.461000000
H     5.190000000     2.135000000    -0.599000000
H     6.288000000     2.574000000    -1.544000000
O     3.464000000     9.336000000     2.101000000
H     3.048000000     8.655000000     1.572000000
H     3.888000000     9.910000000     1.463000000
O     4.481000000     6.290000000    -0.316000000
H     3.650000000     5.816000000    -0.323000000
H     4.568000000     6.635000000    -1.205000000
O    -1.096000000     9.657000000    -1.076000000
H    -0.612000000     9.535000000    -0.259000000
H    -1.969000000     9.934000000    -0.799000000
O     2.503000000     0.389000000     1.253000000
H     1.952000000    -0.040000000     1.908000000
H     2.054000000     1.213000000     1.064000000
O     5.153000000     5.362000000    -4.798000000
H     4.592000000     5.203000000    -4.038000000
H     5.911000000     4.795000000    -4.659000000
