215
-1447.98979
C     3.274000000     0.820000000     3.484000000
H     3.879000000     0.116000000     2.919000000
C     2.062000000     0.508000000     4.148000000
C     1.391000000     1.522000000     4.878000000
H     0.434000000     1.253000000     5.317000000
C     1.468000000    -0.906000000     3.861000000
O     2.440000000    -1.932000000     3.833000000
H     1.104000000    -0.778000000     2.831000000
O     0.374000000    -1.200000000     4.726000000
C    -0.715000000    -1.663000000     4.185000000
C    -1.769000000    -0.798000000     3.999000000
H    -1.682000000     0.268000000     4.193000000
C    -2.928000000    -1.162000000     3.301000000
O    -3.758000000    -0.138000000     2.965000000
C    -3.109000000    -2.449000000     2.833000000
C    -4.306000000    -2.870000000     2.022000000
H    -4.421000000    -3.947000000     2.162000000
C    -4.089000000    -2.496000000     0.583000000
C    -3.654000000    -3.440000000    -0.325000000
H    -3.354000000    -4.392000000     0.107000000
H    -5.189000000    -2.391000000     2.452000000
C    -2.065000000    -3.408000000     3.045000000
H    -2.005000000    -4.431000000     2.682000000
C    -0.833000000    -3.010000000     3.654000000
C     0.258000000    -3.944000000     3.794000000
H    -0.071000000    -4.982000000     3.879000000
H     0.637000000    -3.801000000     4.808000000
C     1.310000000    -3.777000000     2.696000000
C     1.149000000    -4.559000000     1.493000000
H     0.378000000    -5.325000000     1.461000000
C     2.265000000    -2.778000000     2.728000000
C     3.139000000    -2.606000000     1.642000000
H     3.867000000    -1.799000000     1.634000000
C     3.071000000    -3.407000000     0.518000000
O     3.881000000    -3.157000000    -0.518000000
C     3.316000000    -2.343000000    -1.506000000
C     4.062000000    -1.041000000    -1.788000000
C     3.646000000    -0.220000000    -2.802000000
H     2.787000000    -0.520000000    -3.397000000
C     5.305000000    -0.781000000    -1.229000000
H     5.709000000    -1.480000000    -0.501000000
O     3.003000000    -3.167000000    -2.612000000
H     2.360000000    -2.016000000    -1.072000000
C     2.080000000    -4.404000000     0.466000000
C     1.975000000    -5.227000000    -0.848000000
H     1.450000000    -6.171000000    -0.689000000
H     3.001000000    -5.470000000    -1.131000000
C     1.042000000    -4.523000000    -1.864000000
C    -0.342000000    -4.723000000    -1.865000000
H    -0.840000000    -5.406000000    -1.182000000
C     1.675000000    -3.537000000    -2.719000000
C     0.777000000    -2.784000000    -3.505000000
H     1.075000000    -2.004000000    -4.202000000
C    -0.641000000    -3.064000000    -3.519000000
O    -1.450000000    -2.256000000    -4.327000000
C    -2.050000000    -1.159000000    -3.669000000
C    -1.983000000     0.155000000    -4.457000000
C    -1.042000000     0.275000000    -5.501000000
H    -0.456000000    -0.619000000    -5.699000000
C    -2.764000000     1.216000000    -4.153000000
H    -3.503000000     1.097000000    -3.365000000
O    -3.392000000    -1.448000000    -3.385000000
H    -1.502000000    -0.976000000    -2.733000000
C    -1.227000000    -3.933000000    -2.652000000
C    -2.775000000    -4.150000000    -2.510000000
H    -3.174000000    -5.129000000    -2.237000000
H    -3.245000000    -3.928000000    -3.471000000
C    -3.385000000    -3.067000000    -1.591000000
C    -3.736000000    -1.762000000    -2.075000000
C    -4.282000000    -0.883000000    -1.242000000
H    -4.769000000     0.000000000    -1.648000000
C    -4.350000000    -1.197000000     0.078000000
O    -4.766000000    -0.178000000     0.886000000
C    -3.768000000     0.472000000     1.607000000
H    -2.829000000     0.230000000     1.088000000
C    -3.906000000     1.961000000     1.794000000
C    -3.357000000     2.576000000     2.905000000
H    -3.014000000     1.989000000     3.753000000
C    -4.407000000     2.739000000     0.755000000
H    -4.967000000     2.249000000    -0.038000000
C    -4.459000000     4.113000000     0.798000000
O    -4.958000000     4.888000000    -0.203000000
C    -3.946000000     4.751000000     1.884000000
H    -3.882000000     5.836000000     1.914000000
C    -3.362000000     3.985000000     2.950000000
O    -2.830000000     4.773000000     3.932000000
C    -2.117000000     4.297000000     5.049000000
C    -0.734000000     4.378000000     5.028000000
H    -0.296000000     4.942000000     4.208000000
C    -2.744000000     3.630000000     6.109000000
H    -3.821000000     3.507000000     6.193000000
C    -2.023000000     2.970000000     7.056000000
H    -2.476000000     2.317000000     7.798000000
C    -0.587000000     3.072000000     7.034000000
H     0.027000000     2.494000000     7.719000000
C     0.037000000     3.772000000     6.029000000
O     1.439000000     3.724000000     5.876000000
C     2.045000000     2.735000000     5.122000000
C     3.230000000     3.028000000     4.509000000
H     3.718000000     3.993000000     4.628000000
C     3.841000000     2.128000000     3.620000000
O     4.969000000     2.519000000     3.019000000
C     5.920000000     1.738000000     2.471000000
C     6.184000000     1.720000000     1.132000000
H     5.481000000     2.252000000     0.496000000
C     6.716000000     0.893000000     3.297000000
H     6.541000000     0.840000000     4.368000000
C     7.693000000     0.073000000     2.686000000
H     8.304000000    -0.649000000     3.223000000
C     7.875000000     0.040000000     1.312000000
H     8.599000000    -0.666000000     0.913000000
C     7.082000000     0.828000000     0.558000000
O     7.174000000     0.778000000    -0.832000000
C     6.002000000     0.420000000    -1.455000000
C     5.578000000     1.321000000    -2.467000000
H     6.100000000     2.216000000    -2.794000000
C     4.473000000     0.853000000    -3.189000000
O     4.092000000     1.686000000    -4.178000000
C     3.441000000     1.208000000    -5.335000000
C     2.248000000     1.801000000    -5.744000000
H     1.902000000     2.640000000    -5.145000000
C     3.950000000     0.075000000    -6.020000000
H     4.891000000    -0.410000000    -5.772000000
C     3.200000000    -0.461000000    -7.086000000
H     3.444000000    -1.459000000    -7.442000000
C     1.939000000     0.030000000    -7.382000000
H     1.352000000    -0.432000000    -8.171000000
C     1.486000000     1.163000000    -6.698000000
O     0.216000000     1.648000000    -6.969000000
C    -0.822000000     1.517000000    -6.081000000
C    -1.623000000     2.582000000    -5.704000000
H    -1.409000000     3.539000000    -6.175000000
C    -2.618000000     2.440000000    -4.801000000
O    -3.398000000     3.556000000    -4.530000000
C    -4.383000000     3.633000000    -3.592000000
C    -5.675000000     3.108000000    -3.893000000
H    -5.761000000     2.625000000    -4.862000000
C    -6.706000000     3.175000000    -2.933000000
H    -7.716000000     2.827000000    -3.134000000
C    -6.525000000     3.764000000    -1.706000000
H    -7.342000000     3.712000000    -0.991000000
C    -5.239000000     4.279000000    -1.440000000
C    -4.216000000     4.254000000    -2.392000000
H    -3.317000000     4.728000000    -2.006000000
C    -0.586000000     2.752000000     1.449000000
H    -0.568000000     3.301000000     2.386000000
C    -0.305000000     1.404000000     1.490000000
H    -0.164000000     0.959000000     2.472000000
C    -0.176000000     0.643000000     0.320000000
H     0.056000000    -0.443000000     0.339000000
C    -0.506000000     1.241000000    -0.886000000
H    -0.478000000     0.702000000    -1.830000000
C    -0.775000000     2.532000000    -1.016000000
H    -0.921000000     3.000000000    -1.986000000
C    -0.722000000     3.320000000     0.159000000
C    -0.880000000     4.819000000    -0.008000000
O    -0.772000000     5.300000000    -1.105000000
O    -0.767000000     5.618000000     0.910000000
O     0.963000000     8.019000000    -1.564000000
H     1.330000000     8.238000000    -2.421000000
H     0.057000000     7.770000000    -1.748000000
O     2.497000000     7.170000000    -3.969000000
H     2.766000000     6.843000000    -4.828000000
H     2.016000000     6.442000000    -3.576000000
O     3.114000000     9.013000000    -0.491000000
H     3.238000000     8.647000000     0.384000000
H     2.279000000     8.651000000    -0.787000000
O    -2.994000000    10.025000000     0.033000000
H    -3.505000000     9.765000000    -0.734000000
H    -3.559000000     9.820000000     0.778000000
O    -4.544000000     8.182000000    -1.609000000
H    -4.882000000     7.691000000    -0.860000000
H    -5.321000000     8.572000000    -2.010000000
O     4.802000000     5.538000000     1.034000000
H     4.145000000     4.889000000     1.288000000
H     5.125000000     5.888000000     1.864000000
O     0.014000000     4.869000000    -3.721000000
H    -0.332000000     4.889000000    -2.829000000
H    -0.592000000     5.410000000    -4.226000000
O    -3.357000000     7.999000000     3.991000000
H    -3.010000000     8.850000000     4.258000000
H    -2.803000000     7.734000000     3.257000000
O    -1.718000000     7.531000000    -1.819000000
H    -1.425000000     6.674000000    -1.508000000
H    -2.608000000     7.618000000    -1.476000000
O     1.945000000     5.506000000    -1.020000000
H     1.051000000     5.190000000    -0.886000000
H     1.873000000     6.459000000    -0.963000000
O     1.368000000     5.815000000     2.279000000
H     1.965000000     5.232000000     1.810000000
H     0.531000000     5.714000000     1.827000000
O    -1.682000000     9.434000000    -3.657000000
H    -1.835000000     8.603000000    -3.208000000
H    -0.731000000     9.540000000    -3.647000000
O     3.188000000     2.975000000    -1.383000000
H     3.504000000     2.572000000    -2.192000000
H     2.927000000     3.859000000    -1.642000000
O    -0.209000000     7.790000000     4.099000000
H    -0.887000000     7.459000000     3.510000000
H     0.190000000     8.517000000     3.620000000
O    -7.437000000     4.956000000     1.769000000
H    -7.894000000     4.488000000     2.469000000
H    -6.520000000     4.959000000     2.042000000
O     3.071000000     6.356000000     4.749000000
H     2.435000000     5.896000000     4.202000000
H     3.430000000     7.037000000     4.179000000
O     2.878000000     3.612000000     1.234000000
H     2.608000000     2.827000000     1.711000000
H     2.695000000     3.408000000     0.316000000
O     2.937000000     8.235000000     2.201000000
H     2.370000000     7.474000000     2.077000000
H     2.376000000     8.886000000     2.621000000
O    -1.811000000     7.935000000     1.790000000
H    -1.978000000     8.435000000     0.991000000
H    -1.445000000     7.106000000     1.481000000
