215
-1449.49534
C     1.310000000    -3.016000000     4.161000000
H     1.854000000    -3.836000000     3.699000000
C     0.000000000    -2.639000000     3.845000000
C    -0.742000000    -1.875000000     4.733000000
H    -1.799000000    -1.630000000     4.677000000
C    -0.648000000    -3.182000000     2.545000000
O    -0.102000000    -4.460000000     2.200000000
H    -0.423000000    -2.492000000     1.718000000
O    -2.066000000    -3.136000000     2.694000000
C    -2.929000000    -2.862000000     1.697000000
C    -3.675000000    -1.758000000     1.792000000
H    -3.581000000    -1.129000000     2.674000000
C    -4.346000000    -1.222000000     0.726000000
O    -4.822000000    -0.020000000     0.895000000
C    -4.313000000    -1.929000000    -0.465000000
C    -5.017000000    -1.320000000    -1.658000000
H    -5.317000000    -2.154000000    -2.296000000
C    -4.178000000    -0.339000000    -2.442000000
C    -3.356000000    -0.886000000    -3.428000000
H    -3.297000000    -1.948000000    -3.650000000
H    -5.961000000    -0.855000000    -1.368000000
C    -3.666000000    -3.166000000    -0.542000000
H    -3.667000000    -3.712000000    -1.482000000
C    -2.895000000    -3.599000000     0.524000000
C    -2.231000000    -5.001000000     0.356000000
H    -2.717000000    -5.601000000    -0.416000000
H    -2.260000000    -5.621000000     1.254000000
C    -0.813000000    -4.799000000    -0.060000000
C    -0.518000000    -4.858000000    -1.433000000
H    -1.265000000    -4.884000000    -2.221000000
C     0.242000000    -4.746000000     0.845000000
C     1.470000000    -4.381000000     0.468000000
H     2.320000000    -4.274000000     1.138000000
C     1.762000000    -4.401000000    -0.881000000
O     3.001000000    -3.872000000    -1.199000000
C     3.009000000    -2.463000000    -1.403000000
C     4.233000000    -1.822000000    -0.752000000
C     4.795000000    -0.612000000    -1.207000000
H     4.324000000    -0.167000000    -2.080000000
C     4.707000000    -2.430000000     0.423000000
H     4.217000000    -3.277000000     0.897000000
O     3.100000000    -2.350000000    -2.854000000
H     2.038000000    -2.138000000    -1.001000000
C     0.795000000    -4.609000000    -1.842000000
C     1.050000000    -4.355000000    -3.323000000
H     0.330000000    -4.963000000    -3.875000000
H     2.063000000    -4.690000000    -3.556000000
C     0.956000000    -2.957000000    -3.752000000
C    -0.229000000    -2.492000000    -4.342000000
H    -1.067000000    -3.183000000    -4.358000000
C     1.991000000    -2.076000000    -3.594000000
C     1.883000000    -0.726000000    -4.030000000
H     2.697000000    -0.056000000    -3.767000000
C     0.722000000    -0.265000000    -4.590000000
O     0.575000000     1.113000000    -4.768000000
C    -0.277000000     1.807000000    -3.855000000
C     0.359000000     3.156000000    -3.430000000
C     1.666000000     3.166000000    -2.992000000
H     2.291000000     2.292000000    -3.159000000
C    -0.431000000     4.298000000    -3.259000000
H    -1.499000000     4.246000000    -3.453000000
O    -1.578000000     2.076000000    -4.435000000
H    -0.434000000     1.358000000    -2.864000000
C    -0.391000000    -1.138000000    -4.697000000
C    -1.711000000    -0.646000000    -5.184000000
H    -2.294000000    -1.483000000    -5.574000000
H    -1.673000000     0.044000000    -6.030000000
C    -2.485000000    -0.034000000    -4.060000000
C    -2.491000000     1.295000000    -3.890000000
C    -3.338000000     1.845000000    -2.931000000
H    -3.326000000     2.901000000    -2.674000000
C    -4.156000000     1.018000000    -2.171000000
O    -4.741000000     1.491000000    -1.043000000
C    -4.131000000     1.087000000     0.263000000
H    -3.085000000     0.795000000     0.093000000
C    -3.915000000     2.354000000     1.117000000
C    -3.504000000     2.170000000     2.455000000
H    -3.497000000     1.177000000     2.895000000
C    -4.025000000     3.596000000     0.581000000
H    -4.311000000     3.820000000    -0.444000000
C    -3.769000000     4.700000000     1.445000000
O    -3.780000000     6.003000000     0.916000000
C    -3.457000000     4.566000000     2.742000000
H    -3.223000000     5.443000000     3.340000000
C    -3.330000000     3.342000000     3.295000000
O    -3.028000000     3.299000000     4.670000000
C    -2.970000000     2.094000000     5.382000000
C    -1.780000000     1.485000000     5.800000000
H    -0.815000000     1.851000000     5.460000000
C    -4.157000000     1.458000000     5.698000000
H    -5.113000000     1.877000000     5.393000000
C    -4.191000000     0.231000000     6.331000000
H    -5.103000000    -0.309000000     6.572000000
C    -3.047000000    -0.376000000     6.654000000
H    -3.095000000    -1.351000000     7.133000000
C    -1.808000000     0.229000000     6.417000000
O    -0.678000000    -0.482000000     6.764000000
C    -0.066000000    -1.303000000     5.806000000
C     1.239000000    -1.593000000     6.111000000
H     1.804000000    -1.211000000     6.958000000
C     1.897000000    -2.536000000     5.332000000
O     3.222000000    -2.731000000     5.651000000
C     4.189000000    -3.272000000     4.816000000
C     4.783000000    -2.570000000     3.775000000
H     4.514000000    -1.531000000     3.604000000
C     4.617000000    -4.590000000     5.077000000
H     4.145000000    -5.217000000     5.828000000
C     5.665000000    -5.126000000     4.314000000
H     6.063000000    -6.133000000     4.407000000
C     6.333000000    -4.381000000     3.376000000
H     7.143000000    -4.804000000     2.787000000
C     5.828000000    -3.149000000     3.039000000
O     6.499000000    -2.414000000     2.103000000
C     5.828000000    -1.843000000     1.067000000
C     6.431000000    -0.670000000     0.490000000
H     7.252000000    -0.183000000     1.008000000
C     5.902000000    -0.035000000    -0.621000000
O     6.608000000     0.916000000    -1.308000000
C     5.963000000     1.786000000    -2.135000000
C     5.074000000     2.651000000    -1.566000000
H     4.888000000     2.728000000    -0.498000000
C     6.340000000     1.766000000    -3.491000000
H     7.052000000     1.079000000    -3.942000000
C     5.613000000     2.633000000    -4.301000000
H     5.957000000     2.764000000    -5.323000000
C     4.652000000     3.465000000    -3.789000000
H     4.113000000     4.161000000    -4.427000000
C     4.380000000     3.504000000    -2.439000000
O     3.420000000     4.375000000    -1.922000000
C     2.180000000     4.364000000    -2.455000000
C     1.474000000     5.547000000    -2.522000000
H     1.831000000     6.394000000    -1.943000000
C     0.115000000     5.509000000    -2.833000000
O    -0.575000000     6.627000000    -2.618000000
C    -1.877000000     6.639000000    -2.161000000
C    -2.916000000     7.050000000    -2.987000000
H    -2.684000000     7.354000000    -4.004000000
C    -4.220000000     7.245000000    -2.480000000
H    -4.940000000     7.708000000    -3.149000000
C    -4.511000000     6.831000000    -1.186000000
H    -5.510000000     6.808000000    -0.758000000
C    -3.474000000     6.347000000    -0.376000000
C    -2.131000000     6.315000000    -0.821000000
H    -1.373000000     6.164000000    -0.057000000
C     1.021000000     0.735000000     2.599000000
H     1.786000000     0.398000000     3.294000000
C     0.488000000    -0.143000000     1.617000000
H     0.865000000    -1.160000000     1.541000000
C    -0.335000000     0.255000000     0.631000000
H    -0.785000000    -0.374000000    -0.093000000
C    -0.661000000     1.620000000     0.538000000
H    -1.204000000     2.030000000    -0.310000000
C    -0.224000000     2.509000000     1.553000000
H    -0.444000000     3.570000000     1.478000000
C     0.641000000     2.077000000     2.562000000
C     1.258000000     3.076000000     3.556000000
O     0.786000000     4.232000000     3.700000000
O     2.197000000     2.704000000     4.215000000
O     4.335000000     4.777000000     1.299000000
H     3.895000000     4.595000000     0.469000000
H     5.260000000     4.862000000     1.067000000
O    -1.259000000     7.874000000     3.193000000
H    -1.671000000     8.171000000     2.382000000
H    -0.539000000     7.314000000     2.905000000
O     2.280000000     7.408000000     5.561000000
H     2.770000000     7.917000000     4.915000000
H     1.436000000     7.238000000     5.142000000
O    -1.627000000     6.352000000     7.698000000
H    -1.356000000     5.915000000     6.890000000
H    -1.050000000     7.114000000     7.763000000
O     1.535000000     4.382000000     6.699000000
H     0.738000000     4.821000000     6.403000000
H     1.843000000     3.901000000     5.931000000
O     5.571000000     5.382000000     4.913000000
H     6.170000000     4.872000000     4.367000000
H     5.024000000     4.727000000     5.345000000
O    -0.861000000     5.081000000     5.532000000
H    -1.665000000     4.561000000     5.528000000
H    -0.395000000     4.808000000     4.743000000
O     1.180000000     6.717000000     2.590000000
H     2.119000000     6.849000000     2.717000000
H     1.034000000     5.799000000     2.819000000
O     0.711000000     5.507000000     9.689000000
H     0.952000000     5.166000000     8.828000000
H    -0.246000000     5.524000000     9.681000000
O     2.735000000     0.508000000     8.819000000
H     3.251000000    -0.083000000     8.272000000
H     2.577000000     0.014000000     9.623000000
O     1.759000000     7.862000000     0.149000000
H     1.299000000     8.696000000     0.240000000
H     1.425000000     7.325000000     0.867000000
O     6.234000000     1.529000000     7.375000000
H     5.360000000     1.792000000     7.086000000
H     6.387000000     2.041000000     8.170000000
O     3.911000000     6.952000000     2.936000000
H     4.544000000     6.864000000     3.648000000
H     3.954000000     6.115000000     2.472000000
O     0.488000000     2.642000000     8.399000000
H     1.046000000     1.908000000     8.658000000
H     1.071000000     3.231000000     7.921000000
O     4.687000000     2.660000000     3.338000000
H     4.534000000     3.419000000     2.776000000
H     3.819000000     2.425000000     3.666000000
O     3.895000000     2.746000000     6.401000000
H     3.619000000     2.737000000     5.485000000
H     3.170000000     3.166000000     6.865000000
O     6.517000000     0.693000000     4.001000000
H     5.884000000     1.286000000     3.597000000
H     6.238000000     0.631000000     4.914000000
O    -2.911000000     7.803000000     5.501000000
H    -2.312000000     7.521000000     4.810000000
H    -3.766000000     7.849000000     5.073000000
O     3.744000000     5.174000000     8.492000000
H     3.024000000     5.242000000     7.866000000
H     3.841000000     4.234000000     8.644000000
