215
-1466.39393
C     2.012000000    -3.633000000     3.435000000
H     2.529000000    -4.035000000     2.567000000
C     0.640000000    -3.392000000     3.409000000
C     0.117000000    -2.776000000     4.569000000
H    -0.948000000    -2.566000000     4.637000000
C    -0.177000000    -3.810000000     2.202000000
O     0.412000000    -4.933000000     1.485000000
H    -0.281000000    -2.887000000     1.612000000
O    -1.533000000    -4.175000000     2.636000000
C    -2.468000000    -3.697000000     1.804000000
C    -3.039000000    -2.502000000     2.171000000
H    -2.788000000    -2.144000000     3.166000000
C    -3.957000000    -1.843000000     1.431000000
O    -4.422000000    -0.627000000     1.914000000
C    -4.273000000    -2.316000000     0.128000000
C    -5.382000000    -1.632000000    -0.769000000
H    -5.809000000    -2.337000000    -1.486000000
C    -4.688000000    -0.494000000    -1.560000000
C    -4.163000000    -0.711000000    -2.821000000
H    -4.249000000    -1.685000000    -3.295000000
H    -6.131000000    -1.144000000    -0.141000000
C    -3.550000000    -3.431000000    -0.381000000
H    -3.658000000    -3.884000000    -1.363000000
C    -2.717000000    -4.178000000     0.451000000
C    -1.995000000    -5.372000000    -0.124000000
H    -2.556000000    -5.886000000    -0.907000000
H    -1.808000000    -6.080000000     0.685000000
C    -0.708000000    -4.896000000    -0.744000000
C    -0.579000000    -4.522000000    -2.083000000
H    -1.458000000    -4.631000000    -2.713000000
C     0.499000000    -4.723000000     0.071000000
C     1.741000000    -4.242000000    -0.443000000
H     2.603000000    -4.258000000     0.220000000
C     1.764000000    -3.841000000    -1.795000000
O     2.928000000    -3.344000000    -2.383000000
C     2.891000000    -1.852000000    -2.465000000
C     4.260000000    -1.317000000    -1.982000000
C     4.888000000    -0.261000000    -2.644000000
H     4.559000000     0.231000000    -3.555000000
C     4.885000000    -1.824000000    -0.860000000
H     4.406000000    -2.690000000    -0.411000000
O     2.662000000    -1.482000000    -3.917000000
H     2.030000000    -1.393000000    -1.958000000
C     0.614000000    -4.043000000    -2.632000000
C     0.572000000    -3.725000000    -4.054000000
H    -0.214000000    -4.289000000    -4.560000000
H     1.586000000    -3.936000000    -4.402000000
C     0.332000000    -2.168000000    -4.277000000
C    -0.975000000    -1.721000000    -4.502000000
H    -1.698000000    -2.510000000    -4.311000000
C     1.402000000    -1.212000000    -4.337000000
C     1.106000000     0.122000000    -4.491000000
H     1.931000000     0.828000000    -4.436000000
C    -0.190000000     0.548000000    -4.622000000
O    -0.501000000     1.920000000    -4.570000000
C    -1.103000000     2.399000000    -3.350000000
C    -0.419000000     3.651000000    -2.814000000
C     0.917000000     3.603000000    -2.528000000
H     1.498000000     2.710000000    -2.749000000
C    -1.178000000     4.761000000    -2.288000000
H    -2.263000000     4.768000000    -2.368000000
O    -2.496000000     2.583000000    -3.545000000
H    -1.034000000     1.633000000    -2.564000000
C    -1.281000000    -0.377000000    -4.627000000
C    -2.702000000     0.110000000    -4.887000000
H    -3.307000000    -0.568000000    -5.492000000
H    -2.633000000     1.047000000    -5.443000000
C    -3.395000000     0.275000000    -3.542000000
C    -3.289000000     1.578000000    -3.010000000
C    -3.875000000     1.837000000    -1.745000000
H    -3.780000000     2.824000000    -1.300000000
C    -4.559000000     0.821000000    -1.111000000
O    -4.890000000     1.075000000     0.209000000
C    -3.941000000     0.599000000     1.164000000
H    -3.010000000     0.387000000     0.618000000
C    -3.516000000     1.758000000     2.084000000
C    -2.714000000     1.484000000     3.175000000
H    -2.413000000     0.464000000     3.404000000
C    -3.924000000     3.117000000     1.898000000
H    -4.574000000     3.447000000     1.092000000
C    -3.410000000     4.119000000     2.736000000
O    -3.982000000     5.405000000     2.535000000
C    -2.610000000     3.842000000     3.816000000
H    -2.308000000     4.619000000     4.514000000
C    -2.227000000     2.479000000     3.959000000
O    -1.523000000     2.083000000     5.071000000
C    -1.661000000     0.959000000     5.830000000
C    -0.716000000     0.011000000     5.844000000
H     0.178000000    -0.040000000     5.228000000
C    -2.772000000     0.815000000     6.704000000
H    -3.556000000     1.568000000     6.750000000
C    -2.954000000    -0.312000000     7.542000000
H    -3.904000000    -0.421000000     8.059000000
C    -1.923000000    -1.289000000     7.562000000
H    -2.006000000    -2.198000000     8.152000000
C    -0.814000000    -1.078000000     6.735000000
O     0.217000000    -2.049000000     6.802000000
C     0.804000000    -2.507000000     5.704000000
C     2.203000000    -2.675000000     5.693000000
H     2.851000000    -2.464000000     6.540000000
C     2.794000000    -3.169000000     4.542000000
O     4.133000000    -3.321000000     4.531000000
C     4.961000000    -3.625000000     3.495000000
C     5.446000000    -2.579000000     2.737000000
H     5.350000000    -1.544000000     3.056000000
C     5.075000000    -4.939000000     3.065000000
H     4.669000000    -5.743000000     3.672000000
C     5.775000000    -5.193000000     1.895000000
H     5.843000000    -6.226000000     1.564000000
C     6.326000000    -4.126000000     1.169000000
H     6.926000000    -4.189000000     0.265000000
C     6.174000000    -2.815000000     1.533000000
O     6.716000000    -1.825000000     0.743000000
C     6.085000000    -1.315000000    -0.340000000
C     6.618000000    -0.206000000    -0.906000000
H     7.568000000     0.183000000    -0.548000000
C     6.017000000     0.341000000    -2.071000000
O     6.450000000     1.516000000    -2.648000000
C     5.594000000     2.460000000    -3.187000000
C     4.704000000     3.168000000    -2.438000000
H     4.633000000     2.904000000    -1.386000000
C     5.542000000     2.732000000    -4.598000000
H     6.055000000     2.117000000    -5.333000000
C     4.728000000     3.729000000    -5.088000000
H     4.653000000     3.951000000    -6.150000000
C     3.850000000     4.373000000    -4.267000000
H     3.195000000     5.093000000    -4.751000000
C     3.839000000     4.065000000    -2.910000000
O     2.958000000     4.759000000    -2.065000000
C     1.579000000     4.732000000    -2.065000000
C     0.872000000     5.808000000    -1.525000000
H     1.419000000     6.637000000    -1.082000000
C    -0.506000000     5.773000000    -1.669000000
O    -1.195000000     6.803000000    -1.142000000
C    -2.349000000     6.784000000    -0.474000000
C    -3.356000000     7.657000000    -0.899000000
H    -3.123000000     8.340000000    -1.711000000
C    -4.566000000     7.772000000    -0.227000000
H    -5.338000000     8.293000000    -0.788000000
C    -4.750000000     6.992000000     0.918000000
H    -5.756000000     6.863000000     1.310000000
C    -3.775000000     6.118000000     1.389000000
C    -2.542000000     6.054000000     0.684000000
H    -1.803000000     5.313000000     0.976000000
C     1.813000000     0.418000000     1.593000000
H     2.759000000     0.151000000     2.055000000
C     1.096000000    -0.519000000     0.686000000
H     1.563000000    -1.498000000     0.618000000
C    -0.094000000    -0.071000000     0.078000000
H    -0.577000000    -0.734000000    -0.644000000
C    -0.511000000     1.244000000     0.357000000
H    -1.353000000     1.591000000    -0.236000000
C     0.110000000     2.089000000     1.272000000
H    -0.352000000     3.050000000     1.484000000
C     1.267000000     1.714000000     1.869000000
C     2.018000000     2.674000000     2.806000000
O     1.454000000     3.740000000     2.961000000
O     3.105000000     2.287000000     3.275000000
O     7.404000000     4.127000000     5.123000000
H     7.457000000     5.050000000     4.877000000
H     6.653000000     3.792000000     4.633000000
O     1.985000000     5.904000000     1.803000000
H     1.190000000     6.432000000     1.735000000
H     1.677000000     5.045000000     2.093000000
O     2.812000000     0.742000000     7.389000000
H     2.097000000     1.032000000     7.955000000
H     3.133000000     1.544000000     6.976000000
O     4.791000000     4.071000000     4.082000000
H     4.215000000     3.368000000     3.781000000
H     4.269000000     4.867000000     3.983000000
O     6.740000000     0.909000000     4.851000000
H     5.811000000     0.678000000     4.890000000
H     7.091000000     0.371000000     4.141000000
O     3.374000000     3.222000000     6.277000000
H     4.048000000     3.382000000     5.616000000
H     2.667000000     3.826000000     6.049000000
O     1.666000000     5.292000000     5.109000000
H     1.257000000     4.823000000     4.381000000
H     2.353000000     5.818000000     4.699000000
O    -0.048000000     7.556000000     1.882000000
H    -0.509000000     8.213000000     2.404000000
H    -0.244000000     7.791000000     0.975000000
O     2.089000000     9.177000000     4.626000000
H     1.132000000     9.187000000     4.591000000
H     2.318000000     8.247000000     4.631000000
O     0.512000000     4.581000000     7.440000000
H     0.919000000     5.152000000     6.789000000
H     1.240000000     4.283000000     7.986000000
O     4.164000000     0.252000000     4.711000000
H     3.641000000     0.124000000     5.502000000
H     3.663000000     0.881000000     4.191000000
O     6.938000000     6.982000000     4.541000000
H     6.330000000     7.693000000     4.743000000
H     6.776000000     6.782000000     3.619000000
O     3.835000000     6.614000000     3.723000000
H     3.108000000     6.513000000     3.108000000
H     4.575000000     6.883000000     3.177000000
O     7.372000000     4.057000000     1.002000000
H     6.590000000     3.506000000     1.020000000
H     7.522000000     4.230000000     0.072000000
O     4.042000000     5.054000000     0.459000000
H     3.652000000     4.996000000    -0.413000000
H     3.359000000     5.450000000     1.001000000
O     3.358000000     4.080000000     8.859000000
H     4.119000000     3.625000000     9.220000000
H     3.408000000     3.919000000     7.916000000
O     4.899000000     2.673000000     1.250000000
H     4.424000000     2.324000000     2.004000000
H     4.433000000     3.477000000     1.024000000
O     5.908000000     6.935000000     1.711000000
H     6.797000000     7.134000000     1.416000000
H     5.705000000     6.091000000     1.307000000
O    -0.589000000     2.025000000     8.796000000
H    -0.562000000     2.649000000     8.071000000
H     0.017000000     2.384000000     9.444000000
