215
-1456.98020
C     1.856000000    -4.059000000     3.478000000
H     2.315000000    -4.723000000     2.749000000
C     0.506000000    -3.596000000     3.280000000
C    -0.006000000    -2.627000000     4.140000000
H    -0.947000000    -2.144000000     3.888000000
C    -0.226000000    -3.916000000     2.000000000
O     0.453000000    -4.957000000     1.250000000
H    -0.230000000    -3.032000000     1.345000000
O    -1.622000000    -4.399000000     2.381000000
C    -2.600000000    -3.788000000     1.653000000
C    -3.213000000    -2.630000000     2.151000000
H    -3.125000000    -2.268000000     3.172000000
C    -4.001000000    -1.883000000     1.342000000
O    -4.360000000    -0.644000000     1.882000000
C    -4.229000000    -2.257000000     0.020000000
C    -5.194000000    -1.388000000    -0.901000000
H    -5.765000000    -1.994000000    -1.608000000
C    -4.390000000    -0.383000000    -1.685000000
C    -3.798000000    -0.661000000    -2.881000000
H    -3.919000000    -1.670000000    -3.266000000
H    -5.906000000    -0.835000000    -0.285000000
C    -3.556000000    -3.380000000    -0.513000000
H    -3.753000000    -3.829000000    -1.483000000
C    -2.735000000    -4.160000000     0.314000000
C    -1.983000000    -5.279000000    -0.216000000
H    -2.593000000    -5.881000000    -0.892000000
H    -1.708000000    -6.076000000     0.478000000
C    -0.684000000    -4.889000000    -0.911000000
C    -0.550000000    -4.532000000    -2.257000000
H    -1.455000000    -4.574000000    -2.857000000
C     0.507000000    -4.740000000    -0.147000000
C     1.725000000    -4.319000000    -0.607000000
H     2.598000000    -4.280000000     0.039000000
C     1.830000000    -3.975000000    -1.934000000
O     2.855000000    -3.240000000    -2.422000000
C     2.817000000    -1.799000000    -2.330000000
C     4.016000000    -1.169000000    -1.723000000
C     4.315000000     0.198000000    -2.070000000
H     3.669000000     0.726000000    -2.766000000
C     4.612000000    -1.725000000    -0.598000000
H     4.242000000    -2.687000000    -0.251000000
O     2.746000000    -1.538000000    -3.782000000
H     1.927000000    -1.417000000    -1.808000000
C     0.659000000    -4.116000000    -2.774000000
C     0.785000000    -3.704000000    -4.225000000
H     0.112000000    -4.236000000    -4.900000000
H     1.769000000    -3.897000000    -4.658000000
C     0.500000000    -2.224000000    -4.352000000
C    -0.737000000    -1.815000000    -4.755000000
H    -1.531000000    -2.543000000    -4.907000000
C     1.484000000    -1.231000000    -4.205000000
C     1.266000000     0.128000000    -4.389000000
H     2.093000000     0.833000000    -4.398000000
C    -0.055000000     0.549000000    -4.694000000
O    -0.337000000     1.876000000    -4.741000000
C    -0.911000000     2.491000000    -3.588000000
C    -0.270000000     3.839000000    -3.153000000
C     0.996000000     4.202000000    -3.700000000
H     1.400000000     3.584000000    -4.498000000
C    -0.765000000     4.594000000    -2.073000000
H    -1.683000000     4.329000000    -1.554000000
O    -2.346000000     2.606000000    -3.660000000
H    -0.670000000     1.888000000    -2.701000000
C    -1.046000000    -0.456000000    -4.818000000
C    -2.461000000    -0.054000000    -4.905000000
H    -3.089000000    -0.887000000    -5.229000000
H    -2.478000000     0.716000000    -5.679000000
C    -3.113000000     0.318000000    -3.618000000
C    -3.000000000     1.559000000    -3.004000000
C    -3.436000000     1.818000000    -1.766000000
H    -3.411000000     2.777000000    -1.255000000
C    -4.151000000     0.835000000    -1.071000000
O    -4.506000000     1.104000000     0.213000000
C    -3.769000000     0.644000000     1.339000000
H    -2.725000000     0.457000000     1.047000000
C    -3.748000000     1.697000000     2.464000000
C    -3.613000000     1.367000000     3.801000000
H    -3.479000000     0.313000000     4.028000000
C    -3.855000000     3.071000000     2.119000000
H    -3.876000000     3.393000000     1.081000000
C    -3.791000000     4.053000000     3.100000000
O    -4.075000000     5.383000000     2.783000000
C    -3.669000000     3.670000000     4.423000000
H    -3.641000000     4.475000000     5.153000000
C    -3.628000000     2.327000000     4.794000000
O    -3.404000000     1.917000000     6.138000000
C    -2.917000000     0.688000000     6.502000000
C    -1.599000000     0.333000000     6.183000000
H    -1.005000000     1.087000000     5.674000000
C    -3.731000000    -0.285000000     7.053000000
H    -4.787000000    -0.105000000     7.238000000
C    -3.312000000    -1.605000000     7.116000000
H    -4.077000000    -2.363000000     7.264000000
C    -1.941000000    -1.921000000     6.763000000
H    -1.637000000    -2.957000000     6.634000000
C    -1.049000000    -0.934000000     6.398000000
O     0.231000000    -1.234000000     6.120000000
C     0.687000000    -2.279000000     5.296000000
C     1.978000000    -2.744000000     5.478000000
H     2.498000000    -2.239000000     6.288000000
C     2.559000000    -3.579000000     4.548000000
O     3.869000000    -3.859000000     4.677000000
C     4.747000000    -3.909000000     3.558000000
C     5.166000000    -2.775000000     2.871000000
H     4.720000000    -1.844000000     3.211000000
C     5.343000000    -5.129000000     3.205000000
H     5.040000000    -6.034000000     3.725000000
C     6.111000000    -5.221000000     2.050000000
H     6.531000000    -6.174000000     1.740000000
C     6.485000000    -4.083000000     1.362000000
H     7.050000000    -4.143000000     0.434000000
C     6.016000000    -2.845000000     1.736000000
O     6.380000000    -1.717000000     1.078000000
C     5.635000000    -1.069000000     0.049000000
C     6.025000000     0.201000000    -0.341000000
H     6.886000000     0.659000000     0.139000000
C     5.354000000     0.817000000    -1.445000000
O     5.764000000     2.147000000    -1.722000000
C     5.355000000     2.949000000    -2.803000000
C     4.308000000     3.871000000    -2.730000000
H     3.608000000     3.938000000    -1.901000000
C     6.219000000     2.990000000    -3.922000000
H     6.994000000     2.233000000    -4.010000000
C     5.960000000     3.968000000    -4.928000000
H     6.642000000     4.123000000    -5.760000000
C     4.855000000     4.720000000    -4.947000000
H     4.551000000     5.373000000    -5.762000000
C     4.032000000     4.692000000    -3.797000000
O     2.979000000     5.574000000    -3.733000000
C     1.676000000     5.332000000    -3.208000000
C     1.159000000     6.069000000    -2.174000000
H     1.736000000     6.940000000    -1.874000000
C    -0.079000000     5.696000000    -1.604000000
O    -0.539000000     6.248000000    -0.394000000
C    -1.846000000     6.468000000     0.012000000
C    -2.693000000     7.317000000    -0.703000000
H    -2.343000000     7.878000000    -1.566000000
C    -3.938000000     7.653000000    -0.157000000
H    -4.620000000     8.428000000    -0.497000000
C    -4.348000000     7.094000000     1.058000000
H    -5.322000000     7.342000000     1.471000000
C    -3.574000000     6.082000000     1.676000000
C    -2.339000000     5.826000000     1.170000000
H    -1.703000000     5.066000000     1.616000000
C     1.453000000    -0.211000000     2.018000000
H     2.154000000    -0.761000000     2.641000000
C     0.956000000    -0.811000000     0.852000000
H     1.311000000    -1.778000000     0.508000000
C    -0.063000000    -0.134000000     0.132000000
H    -0.386000000    -0.595000000    -0.776000000
C    -0.453000000     1.141000000     0.481000000
H    -1.146000000     1.715000000    -0.128000000
C     0.028000000     1.750000000     1.625000000
H    -0.158000000     2.812000000     1.762000000
C     1.031000000     1.085000000     2.395000000
C     1.587000000     1.819000000     3.570000000
O     1.064000000     2.824000000     3.951000000
O     2.560000000     1.431000000     4.202000000
O     5.794000000     2.196000000     6.240000000
H     5.101000000     2.782000000     5.936000000
H     5.779000000     1.465000000     5.623000000
O     4.071000000    -0.822000000     8.593000000
H     3.974000000    -1.729000000     8.883000000
H     3.190000000    -0.453000000     8.660000000
O     1.789000000     4.331000000     1.663000000
H     1.336000000     5.125000000     1.946000000
H     1.789000000     3.767000000     2.436000000
O     2.227000000     1.012000000     6.988000000
H     1.573000000     1.678000000     7.199000000
H     2.446000000     1.173000000     6.070000000
O     3.797000000     3.616000000     5.173000000
H     3.422000000     2.888000000     4.678000000
H     3.062000000     3.969000000     5.674000000
O     5.284000000     5.124000000     7.268000000
H     4.346000000     4.995000000     7.127000000
H     5.637000000     5.294000000     6.395000000
O     4.513000000     1.102000000     2.484000000
H     3.659000000     1.323000000     2.856000000
H     4.341000000     0.968000000     1.552000000
O     0.405000000     3.063000000     6.577000000
H     0.731000000     3.004000000     5.679000000
H    -0.458000000     3.468000000     6.493000000
O    -0.734000000     4.665000000     3.907000000
H    -0.249000000     3.842000000     3.972000000
H    -1.396000000     4.607000000     4.597000000
O     0.955000000     6.477000000     3.002000000
H     0.339000000     5.798000000     3.277000000
H     0.399000000     7.194000000     2.696000000
O    -1.556000000     5.259000000     6.728000000
H    -2.347000000     5.580000000     7.161000000
H    -0.920000000     5.965000000     6.838000000
O     3.188000000     7.625000000     5.197000000
H     2.718000000     6.974000000     4.676000000
H     2.499000000     8.142000000     5.614000000
O     4.449000000    -0.266000000     5.622000000
H     4.187000000    -0.219000000     6.541000000
H     3.786000000     0.246000000     5.158000000
O     7.522000000     3.831000000     2.654000000
H     6.683000000     4.084000000     3.040000000
H     7.365000000     3.844000000     1.710000000
O     5.244000000     4.986000000     3.439000000
H     4.902000000     5.866000000     3.599000000
H     4.543000000     4.401000000     3.725000000
O     2.408000000     5.250000000     6.972000000
H     2.049000000     6.137000000     6.980000000
H     1.659000000     4.686000000     7.166000000
O     4.220000000     5.267000000     0.229000000
H     4.035000000     4.463000000     0.714000000
H     5.127000000     5.169000000    -0.059000000
O     2.730000000     2.237000000     0.037000000
H     1.966000000     1.971000000    -0.475000000
H     2.466000000     3.057000000     0.454000000
O     7.403000000     1.052000000     3.328000000
H     6.525000000     0.917000000     2.970000000
H     7.595000000     1.973000000     3.149000000
