215
-1432.48748
C     1.470000000    -2.641000000     3.697000000
H     1.813000000    -3.498000000     3.123000000
C     0.210000000    -2.172000000     3.484000000
C    -0.183000000    -0.932000000     4.102000000
H    -1.127000000    -0.482000000     3.806000000
C    -0.734000000    -2.998000000     2.502000000
O    -0.258000000    -4.295000000     2.100000000
H    -0.713000000    -2.379000000     1.593000000
O    -2.102000000    -3.096000000     2.949000000
C    -3.023000000    -2.628000000     2.091000000
C    -3.481000000    -1.329000000     2.265000000
H    -3.248000000    -0.763000000     3.164000000
C    -4.258000000    -0.780000000     1.235000000
O    -4.720000000     0.494000000     1.466000000
C    -4.573000000    -1.475000000     0.068000000
C    -5.361000000    -0.759000000    -1.045000000
H    -5.699000000    -1.555000000    -1.712000000
C    -4.580000000     0.151000000    -1.960000000
C    -4.047000000    -0.403000000    -3.098000000
H    -4.324000000    -1.422000000    -3.356000000
H    -6.295000000    -0.322000000    -0.687000000
C    -4.136000000    -2.799000000    -0.074000000
H    -4.406000000    -3.349000000    -0.972000000
C    -3.266000000    -3.338000000     0.913000000
C    -2.710000000    -4.741000000     0.696000000
H    -3.430000000    -5.298000000     0.093000000
H    -2.628000000    -5.303000000     1.629000000
C    -1.431000000    -4.678000000     0.010000000
C    -1.262000000    -4.667000000    -1.399000000
H    -2.137000000    -4.684000000    -2.044000000
C    -0.276000000    -4.502000000     0.762000000
C     1.010000000    -4.472000000     0.172000000
H     1.960000000    -4.477000000     0.700000000
C     1.108000000    -4.557000000    -1.198000000
O     2.343000000    -4.450000000    -1.785000000
C     2.665000000    -3.036000000    -2.057000000
C     3.986000000    -2.649000000    -1.300000000
C     4.495000000    -1.386000000    -1.474000000
H     3.965000000    -0.581000000    -1.977000000
C     4.640000000    -3.498000000    -0.415000000
H     4.240000000    -4.470000000    -0.135000000
O     2.526000000    -2.600000000    -3.462000000
H     1.950000000    -2.426000000    -1.485000000
C     0.000000000    -4.537000000    -2.047000000
C     0.088000000    -4.410000000    -3.561000000
H    -0.801000000    -4.927000000    -3.928000000
H     0.962000000    -4.940000000    -3.947000000
C     0.148000000    -2.920000000    -4.089000000
C    -1.085000000    -2.324000000    -4.402000000
H    -2.039000000    -2.821000000    -4.555000000
C     1.289000000    -2.119000000    -3.940000000
C     1.256000000    -0.752000000    -4.116000000
H     2.099000000    -0.134000000    -3.818000000
C     0.076000000    -0.201000000    -4.520000000
O     0.068000000     1.106000000    -4.816000000
C    -0.361000000     2.015000000    -3.792000000
C     0.511000000     3.168000000    -3.414000000
C     1.947000000     3.058000000    -3.413000000
H     2.441000000     2.169000000    -3.796000000
C    -0.043000000     4.337000000    -2.923000000
H    -1.099000000     4.597000000    -2.917000000
O    -1.730000000     2.332000000    -4.118000000
H    -0.443000000     1.385000000    -2.894000000
C    -1.109000000    -0.982000000    -4.698000000
C    -2.432000000    -0.268000000    -5.086000000
H    -3.017000000    -1.115000000    -5.449000000
H    -2.192000000     0.387000000    -5.926000000
C    -3.189000000     0.378000000    -3.893000000
C    -2.859000000     1.703000000    -3.540000000
C    -3.447000000     2.254000000    -2.411000000
H    -3.179000000     3.237000000    -2.033000000
C    -4.347000000     1.476000000    -1.625000000
O    -4.727000000     1.907000000    -0.408000000
C    -3.864000000     1.487000000     0.761000000
H    -2.981000000     1.018000000     0.303000000
C    -3.630000000     2.660000000     1.648000000
C    -3.594000000     2.540000000     3.047000000
H    -3.508000000     1.528000000     3.436000000
C    -3.647000000     3.925000000     1.051000000
H    -3.779000000     4.091000000    -0.015000000
C    -3.597000000     5.082000000     1.819000000
O    -3.614000000     6.282000000     1.233000000
C    -3.408000000     4.925000000     3.184000000
H    -3.184000000     5.780000000     3.817000000
C    -3.473000000     3.742000000     3.785000000
O    -3.347000000     3.737000000     5.122000000
C    -2.821000000     2.602000000     5.656000000
C    -1.484000000     2.298000000     5.565000000
H    -0.874000000     3.077000000     5.115000000
C    -3.678000000     1.720000000     6.339000000
H    -4.719000000     1.968000000     6.535000000
C    -3.172000000     0.548000000     6.916000000
H    -3.837000000    -0.089000000     7.494000000
C    -1.860000000     0.203000000     6.622000000
H    -1.533000000    -0.762000000     7.000000000
C    -1.024000000     1.079000000     5.950000000
O     0.287000000     0.695000000     5.825000000
C     0.696000000    -0.338000000     5.036000000
C     1.955000000    -0.921000000     5.327000000
H     2.611000000    -0.539000000     6.105000000
C     2.339000000    -2.047000000     4.610000000
O     3.555000000    -2.595000000     4.897000000
C     4.270000000    -3.604000000     4.197000000
C     4.954000000    -3.290000000     3.030000000
H     5.094000000    -2.276000000     2.665000000
C     4.426000000    -4.858000000     4.789000000
H     3.953000000    -5.195000000     5.708000000
C     5.173000000    -5.823000000     4.199000000
H     5.324000000    -6.795000000     4.663000000
C     5.801000000    -5.549000000     2.956000000
H     6.273000000    -6.331000000     2.367000000
C     5.670000000    -4.297000000     2.402000000
O     6.381000000    -3.979000000     1.222000000
C     5.791000000    -3.131000000     0.290000000
C     6.270000000    -1.862000000     0.100000000
H     7.207000000    -1.624000000     0.599000000
C     5.586000000    -0.981000000    -0.771000000
O     5.972000000     0.342000000    -0.838000000
C     5.910000000     1.156000000    -1.953000000
C     5.251000000     2.332000000    -1.880000000
H     4.988000000     2.752000000    -0.913000000
C     6.395000000     0.634000000    -3.162000000
H     6.796000000    -0.374000000    -3.223000000
C     6.191000000     1.395000000    -4.333000000
H     6.591000000     1.078000000    -5.293000000
C     5.436000000     2.559000000    -4.254000000
H     5.202000000     3.119000000    -5.156000000
C     4.976000000     3.041000000    -3.016000000
O     4.183000000     4.151000000    -2.929000000
C     2.756000000     4.151000000    -3.045000000
C     2.167000000     5.235000000    -2.564000000
H     2.736000000     5.993000000    -2.032000000
C     0.786000000     5.307000000    -2.426000000
O     0.250000000     6.375000000    -1.683000000
C    -1.099000000     6.676000000    -1.453000000
C    -1.897000000     7.151000000    -2.504000000
H    -1.433000000     7.383000000    -3.459000000
C    -3.278000000     7.247000000    -2.330000000
H    -3.892000000     7.625000000    -3.144000000
C    -3.867000000     6.998000000    -1.105000000
H    -4.951000000     7.054000000    -1.062000000
C    -3.073000000     6.566000000    -0.029000000
C    -1.725000000     6.299000000    -0.243000000
H    -1.155000000     5.863000000     0.573000000
C     1.769000000     0.158000000     1.439000000
H     2.625000000    -0.327000000     1.902000000
C     0.932000000    -0.671000000     0.636000000
H     1.018000000    -1.749000000     0.745000000
C    -0.128000000    -0.121000000    -0.052000000
H    -0.917000000    -0.706000000    -0.593000000
C    -0.311000000     1.327000000    -0.028000000
H    -1.115000000     1.759000000    -0.618000000
C     0.531000000     2.201000000     0.703000000
H     0.356000000     3.270000000     0.613000000
C     1.607000000     1.579000000     1.381000000
C     2.627000000     2.466000000     2.001000000
O     2.677000000     3.631000000     1.676000000
O     3.424000000     1.953000000     2.746000000
O     5.924000000     5.346000000     6.891000000
H     6.311000000     4.837000000     7.604000000
H     6.334000000     4.998000000     6.099000000
O     4.959000000     1.958000000     7.622000000
H     5.216000000     2.875000000     7.719000000
H     5.752000000     1.463000000     7.832000000
O     1.475000000     2.607000000     7.771000000
H     2.227000000     2.830000000     8.319000000
H     1.852000000     2.425000000     6.910000000
O     1.457000000     6.311000000     1.362000000
H     1.711000000     5.403000000     1.199000000
H     1.853000000     6.522000000     2.207000000
O     3.153000000     6.448000000     6.029000000
H     3.053000000     6.116000000     5.137000000
H     4.084000000     6.339000000     6.223000000
O     4.187000000     8.227000000    -0.756000000
H     4.436000000     8.865000000    -0.088000000
H     4.488000000     7.387000000    -0.409000000
O     3.258000000     6.077000000     3.222000000
H     4.008000000     6.668000000     3.160000000
H     3.580000000     5.244000000     2.876000000
O     5.362000000     0.998000000     4.170000000
H     4.677000000     1.557000000     3.803000000
H     6.018000000     0.937000000     3.476000000
O     6.685000000     6.766000000     1.819000000
H     6.213000000     7.214000000     2.521000000
H     5.996000000     6.404000000     1.261000000
O     5.773000000    -1.070000000     5.836000000
H     5.786000000    -0.262000000     5.323000000
H     5.111000000    -1.613000000     5.409000000
O     6.273000000     3.078000000     1.702000000
H     5.392000000     2.711000000     1.625000000
H     6.852000000     2.372000000     1.414000000
O     3.043000000     2.818000000     5.290000000
H     3.702000000     2.395000000     5.840000000
H     3.173000000     2.434000000     4.423000000
O     1.082000000     4.436000000     4.490000000
H     1.846000000     4.075000000     4.940000000
H     1.353000000     4.503000000     3.575000000
O     4.582000000     5.706000000     0.299000000
H     4.110000000     4.999000000     0.738000000
H     4.854000000     5.329000000    -0.538000000
O    -0.766000000     6.338000000     4.591000000
H    -1.305000000     6.264000000     5.378000000
H    -0.164000000     5.595000000     4.642000000
O     7.172000000     3.630000000     4.322000000
H     6.347000000     3.265000000     4.643000000
H     7.035000000     3.738000000     3.380000000
O     7.591000000     0.592000000     2.795000000
H     8.177000000     0.567000000     3.552000000
H     8.139000000     0.914000000     2.079000000
O    -0.439000000     7.932000000     2.359000000
H    -0.938000000     7.336000000     2.917000000
H    -0.014000000     7.362000000     1.719000000
O     8.380000000     2.019000000     0.645000000
H     8.807000000     2.675000000     1.195000000
H     8.324000000     2.429000000    -0.218000000
