215
-1482.21559
C    -4.622000000    -0.440000000    -1.120000000
H    -4.184000000     0.181000000    -1.897000000
C    -4.788000000     0.112000000     0.172000000
C    -5.442000000    -0.641000000     1.170000000
H    -5.622000000    -0.210000000     2.152000000
C    -3.934000000     1.408000000     0.439000000
O    -4.084000000     2.406000000    -0.562000000
H    -2.871000000     1.135000000     0.372000000
O    -4.198000000     1.873000000     1.760000000
C    -3.100000000     2.200000000     2.536000000
C    -2.617000000     1.258000000     3.421000000
H    -3.160000000     0.317000000     3.426000000
C    -1.468000000     1.542000000     4.165000000
O    -0.911000000     0.528000000     4.833000000
C    -0.751000000     2.738000000     4.015000000
C     0.575000000     2.877000000     4.782000000
H     0.814000000     3.920000000     5.001000000
C     1.683000000     2.345000000     3.968000000
C     2.417000000     3.146000000     3.083000000
H     2.038000000     4.153000000     2.926000000
H     0.580000000     2.325000000     5.724000000
C    -1.252000000     3.720000000     3.187000000
H    -0.787000000     4.673000000     2.946000000
C    -2.448000000     3.443000000     2.453000000
C    -3.019000000     4.427000000     1.371000000
H    -2.843000000     5.440000000     1.739000000
H    -4.083000000     4.179000000     1.357000000
C    -2.440000000     4.139000000    -0.017000000
C    -1.283000000     4.800000000    -0.491000000
H    -0.673000000     5.463000000     0.118000000
C    -3.033000000     3.239000000    -0.875000000
C    -2.495000000     3.033000000    -2.169000000
H    -2.997000000     2.295000000    -2.789000000
C    -1.327000000     3.665000000    -2.665000000
O    -0.719000000     3.254000000    -3.793000000
C     0.374000000     2.276000000    -3.686000000
C     0.216000000     1.400000000    -4.910000000
C     1.241000000     0.670000000    -5.506000000
H     2.283000000     0.878000000    -5.278000000
C    -1.053000000     1.046000000    -5.297000000
H    -1.921000000     1.571000000    -4.906000000
O     1.641000000     3.010000000    -3.814000000
H     0.329000000     1.687000000    -2.758000000
C    -0.715000000     4.548000000    -1.765000000
C     0.671000000     5.159000000    -2.194000000
H     0.914000000     6.091000000    -1.679000000
H     0.650000000     5.288000000    -3.278000000
C     1.807000000     4.210000000    -1.758000000
C     2.290000000     4.187000000    -0.430000000
H     1.850000000     4.806000000     0.348000000
C     2.263000000     3.199000000    -2.621000000
C     3.250000000     2.348000000    -2.293000000
H     3.315000000     1.400000000    -2.820000000
C     3.950000000     2.483000000    -1.064000000
O     4.841000000     1.490000000    -0.716000000
C     4.236000000     0.508000000     0.136000000
C     4.488000000    -0.890000000    -0.393000000
C     4.623000000    -1.221000000    -1.710000000
H     4.432000000    -0.492000000    -2.494000000
C     4.432000000    -1.860000000     0.487000000
H     4.322000000    -1.662000000     1.551000000
O     4.717000000     0.711000000     1.486000000
H     3.139000000     0.552000000     0.076000000
C     3.488000000     3.465000000    -0.176000000
C     4.134000000     3.619000000     1.267000000
H     3.938000000     4.656000000     1.546000000
H     5.222000000     3.537000000     1.294000000
C     3.504000000     2.679000000     2.292000000
C     3.814000000     1.325000000     2.377000000
C     3.140000000     0.521000000     3.302000000
H     3.305000000    -0.552000000     3.354000000
C     2.081000000     1.013000000     4.067000000
O     1.319000000     0.068000000     4.747000000
C     0.021000000    -0.297000000     4.130000000
H     0.075000000    -0.059000000     3.058000000
C    -0.184000000    -1.769000000     4.321000000
C    -1.457000000    -2.336000000     4.295000000
H    -2.371000000    -1.758000000     4.190000000
C     0.874000000    -2.665000000     4.496000000
H     1.877000000    -2.250000000     4.558000000
C     0.724000000    -4.021000000     4.682000000
O     1.862000000    -4.816000000     4.843000000
C    -0.537000000    -4.553000000     4.557000000
H    -0.620000000    -5.627000000     4.703000000
C    -1.662000000    -3.707000000     4.402000000
O    -2.880000000    -4.304000000     4.527000000
C    -4.069000000    -3.565000000     4.450000000
C    -4.676000000    -3.495000000     3.202000000
H    -4.271000000    -3.941000000     2.298000000
C    -4.680000000    -2.988000000     5.585000000
H    -4.199000000    -2.990000000     6.560000000
C    -5.905000000    -2.357000000     5.445000000
H    -6.416000000    -1.784000000     6.214000000
C    -6.558000000    -2.301000000     4.221000000
H    -7.458000000    -1.712000000     4.061000000
C    -5.938000000    -2.920000000     3.110000000
O    -6.491000000    -2.775000000     1.814000000
C    -5.896000000    -1.955000000     0.892000000
C    -5.782000000    -2.464000000    -0.467000000
H    -6.187000000    -3.461000000    -0.624000000
C    -5.125000000    -1.693000000    -1.479000000
O    -5.008000000    -2.132000000    -2.803000000
C    -4.918000000    -1.297000000    -3.949000000
C    -3.723000000    -1.207000000    -4.623000000
H    -2.844000000    -1.813000000    -4.416000000
C    -5.973000000    -0.450000000    -4.282000000
H    -6.880000000    -0.569000000    -3.695000000
C    -5.866000000     0.452000000    -5.375000000
H    -6.717000000     1.034000000    -5.720000000
C    -4.660000000     0.495000000    -6.069000000
H    -4.553000000     1.069000000    -6.986000000
C    -3.576000000    -0.335000000    -5.666000000
O    -2.529000000    -0.430000000    -6.501000000
C    -1.271000000     0.015000000    -6.168000000
C    -0.256000000    -0.704000000    -6.758000000
H    -0.492000000    -1.641000000    -7.255000000
C     1.060000000    -0.381000000    -6.422000000
O     2.112000000    -1.087000000    -6.916000000
C     3.339000000    -1.125000000    -6.309000000
C     3.382000000    -1.866000000    -5.133000000
H     2.532000000    -2.489000000    -4.869000000
C     4.409000000    -0.399000000    -6.783000000
H     4.274000000     0.198000000    -7.681000000
C     5.614000000    -0.461000000    -6.078000000
H     6.434000000     0.181000000    -6.391000000
C     5.775000000    -1.412000000    -4.986000000
H     6.737000000    -1.565000000    -4.505000000
C     4.631000000    -2.075000000    -4.493000000
O     4.605000000    -2.895000000    -3.441000000
C     4.648000000    -2.549000000    -2.159000000
C     4.603000000    -3.540000000    -1.200000000
H     4.597000000    -4.602000000    -1.431000000
C     4.669000000    -3.191000000     0.119000000
O     4.615000000    -4.319000000     0.969000000
C     4.532000000    -4.301000000     2.332000000
C     5.607000000    -4.096000000     3.145000000
H     6.554000000    -3.913000000     2.643000000
C     5.475000000    -4.040000000     4.506000000
H     6.378000000    -3.929000000     5.101000000
C     4.221000000    -4.318000000     5.094000000
H     4.142000000    -4.350000000     6.178000000
C     3.115000000    -4.578000000     4.279000000
C     3.276000000    -4.643000000     2.891000000
H     2.431000000    -4.798000000     2.225000000
C    -0.703000000    -1.936000000    -1.441000000
H    -1.255000000    -2.414000000    -2.246000000
C    -0.683000000    -0.601000000    -1.158000000
H    -1.171000000     0.127000000    -1.801000000
C     0.031000000    -0.139000000    -0.115000000
H     0.157000000     0.861000000     0.110000000
C     0.848000000    -0.953000000     0.641000000
H     1.472000000    -0.446000000     1.372000000
C     0.868000000    -2.339000000     0.413000000
H     1.410000000    -3.016000000     1.068000000
C     0.139000000    -2.856000000    -0.677000000
C     0.230000000    -4.299000000    -1.027000000
O     1.086000000    -5.016000000    -0.481000000
O    -0.396000000    -4.765000000    -2.019000000
O    -0.776000000    -6.933000000    -3.724000000
H    -0.600000000    -6.147000000    -3.206000000
H    -0.738000000    -7.650000000    -3.092000000
O     1.317000000    -4.563000000    -7.137000000
H     0.681000000    -4.058000000    -6.630000000
H     0.797000000    -4.987000000    -7.819000000
O     0.908000000    -9.574000000     0.547000000
H     0.077000000   -10.048000000     0.510000000
H     0.767000000    -8.895000000     1.206000000
O    -3.325000000    -8.925000000    -0.526000000
H    -4.028000000    -9.092000000    -1.154000000
H    -3.465000000    -8.021000000    -0.245000000
O     2.465000000    -7.124000000    -5.761000000
H     2.465000000    -6.373000000    -6.356000000
H     1.594000000    -7.114000000    -5.364000000
O     2.248000000    -5.771000000    -3.101000000
H     1.696000000    -5.174000000    -3.606000000
H     1.872000000    -5.760000000    -2.221000000
O    -1.780000000    -4.395000000    -6.360000000
H    -2.602000000    -3.942000000    -6.550000000
H    -1.917000000    -5.286000000    -6.682000000
O     4.699000000    -5.977000000    -4.116000000
H     3.812000000    -5.853000000    -3.777000000
H     4.702000000    -6.872000000    -4.456000000
O    -0.842000000    -9.021000000    -2.021000000
H    -0.409000000    -9.859000000    -2.184000000
H    -1.667000000    -9.256000000    -1.597000000
O     2.417000000    -8.787000000    -1.716000000
H     1.956000000    -9.353000000    -1.097000000
H     2.599000000    -7.988000000    -1.220000000
O    -3.581000000    -6.183000000    -4.248000000
H    -3.781000000    -6.017000000    -3.326000000
H    -2.626000000    -6.245000000    -4.278000000
O     0.222000000    -3.925000000    -4.523000000
H    -0.149000000    -3.630000000    -3.691000000
H    -0.538000000    -4.185000000    -5.045000000
O    -0.970000000    -9.305000000    -5.244000000
H    -0.679000000    -8.617000000    -4.646000000
H    -0.320000000   -10.001000000    -5.143000000
O    -4.293000000    -6.313000000    -0.021000000
H    -3.685000000    -6.061000000     0.675000000
H    -4.167000000    -5.650000000    -0.699000000
O    -2.142000000    -5.627000000     1.545000000
H    -2.000000000    -5.486000000     2.481000000
H    -1.467000000    -6.257000000     1.293000000
O    -0.143000000    -7.043000000     0.559000000
H     0.226000000    -6.408000000    -0.055000000
H    -0.251000000    -7.841000000     0.042000000
O     2.930000000    -6.888000000     0.157000000
H     2.215000000    -6.263000000     0.278000000
H     3.695000000    -6.452000000     0.533000000
O    -3.175000000    -4.632000000    -1.810000000
H    -3.293000000    -3.782000000    -2.234000000
H    -2.229000000    -4.777000000    -1.825000000
O    -2.929000000    -2.665000000     0.580000000
H    -2.243000000    -2.252000000     0.056000000
H    -2.546000000    -3.496000000     0.864000000
