215
-1450.56623
C     1.215000000    -3.520000000     4.376000000
H     1.679000000    -4.131000000     3.606000000
C    -0.049000000    -2.944000000     4.123000000
C    -0.497000000    -2.017000000     5.159000000
H    -1.396000000    -1.438000000     4.965000000
C    -0.838000000    -3.142000000     2.848000000
O    -0.451000000    -4.396000000     2.303000000
H    -0.643000000    -2.290000000     2.180000000
O    -2.282000000    -3.120000000     3.014000000
C    -3.126000000    -2.707000000     2.046000000
C    -3.868000000    -1.561000000     2.324000000
H    -3.742000000    -1.136000000     3.317000000
C    -4.675000000    -0.961000000     1.355000000
O    -5.097000000     0.295000000     1.540000000
C    -4.811000000    -1.615000000     0.104000000
C    -5.591000000    -1.077000000    -1.082000000
H    -6.074000000    -1.816000000    -1.725000000
C    -4.698000000    -0.228000000    -1.992000000
C    -4.133000000    -0.804000000    -3.085000000
H    -4.293000000    -1.855000000    -3.314000000
H    -6.310000000    -0.454000000    -0.547000000
C    -4.197000000    -2.818000000    -0.087000000
H    -4.203000000    -3.304000000    -1.058000000
C    -3.361000000    -3.408000000     0.812000000
C    -2.816000000    -4.811000000     0.448000000
H    -3.448000000    -5.426000000    -0.196000000
H    -2.869000000    -5.364000000     1.388000000
C    -1.362000000    -4.712000000     0.011000000
C    -1.120000000    -4.716000000    -1.331000000
H    -1.980000000    -4.918000000    -1.964000000
C    -0.227000000    -4.490000000     0.911000000
C     1.012000000    -4.323000000     0.314000000
H     1.863000000    -4.193000000     0.976000000
C     1.220000000    -4.226000000    -1.065000000
O     2.491000000    -3.903000000    -1.507000000
C     2.726000000    -2.620000000    -2.085000000
C     3.955000000    -1.931000000    -1.528000000
C     4.730000000    -1.073000000    -2.309000000
H     4.541000000    -0.955000000    -3.373000000
C     4.163000000    -2.074000000    -0.167000000
H     3.701000000    -2.834000000     0.457000000
O     2.589000000    -2.570000000    -3.472000000
H     1.858000000    -2.070000000    -1.692000000
C     0.159000000    -4.491000000    -1.903000000
C     0.396000000    -4.378000000    -3.468000000
H    -0.265000000    -5.069000000    -3.995000000
H     1.388000000    -4.761000000    -3.714000000
C     0.291000000    -3.029000000    -3.988000000
C    -1.018000000    -2.567000000    -4.301000000
H    -1.880000000    -3.229000000    -4.278000000
C     1.411000000    -2.212000000    -4.006000000
C     1.319000000    -0.930000000    -4.451000000
H     2.257000000    -0.381000000    -4.438000000
C     0.052000000    -0.436000000    -4.734000000
O    -0.071000000     0.919000000    -4.940000000
C    -0.554000000     1.609000000    -3.797000000
C     0.311000000     2.842000000    -3.430000000
C     1.692000000     2.772000000    -3.691000000
H     2.159000000     2.045000000    -4.350000000
C    -0.150000000     3.880000000    -2.644000000
H    -1.153000000     3.912000000    -2.227000000
O    -1.899000000     1.940000000    -4.036000000
H    -0.588000000     0.920000000    -2.941000000
C    -1.126000000    -1.207000000    -4.709000000
C    -2.546000000    -0.712000000    -5.018000000
H    -3.125000000    -1.566000000    -5.374000000
H    -2.554000000     0.122000000    -5.723000000
C    -3.265000000    -0.042000000    -3.843000000
C    -2.878000000     1.193000000    -3.453000000
C    -3.483000000     1.766000000    -2.349000000
H    -3.218000000     2.766000000    -2.015000000
C    -4.410000000     1.067000000    -1.656000000
O    -4.869000000     1.586000000    -0.447000000
C    -4.243000000     1.204000000     0.826000000
H    -3.258000000     0.726000000     0.714000000
C    -3.891000000     2.444000000     1.680000000
C    -3.323000000     2.217000000     2.924000000
H    -3.175000000     1.172000000     3.186000000
C    -3.777000000     3.744000000     1.104000000
H    -4.183000000     3.967000000     0.120000000
C    -3.412000000     4.789000000     1.922000000
O    -3.321000000     6.108000000     1.429000000
C    -2.739000000     4.532000000     3.112000000
H    -2.288000000     5.327000000     3.701000000
C    -2.644000000     3.202000000     3.566000000
O    -1.910000000     2.992000000     4.677000000
C    -2.135000000     1.960000000     5.624000000
C    -1.157000000     0.986000000     5.925000000
H    -0.331000000     0.932000000     5.220000000
C    -3.247000000     2.104000000     6.508000000
H    -3.897000000     2.963000000     6.365000000
C    -3.335000000     1.327000000     7.636000000
H    -4.141000000     1.456000000     8.354000000
C    -2.416000000     0.331000000     7.887000000
H    -2.428000000    -0.221000000     8.823000000
C    -1.316000000     0.146000000     7.018000000
O    -0.377000000    -0.869000000     7.327000000
C     0.155000000    -1.717000000     6.322000000
C     1.429000000    -2.292000000     6.466000000
H     2.143000000    -2.026000000     7.241000000
C     1.926000000    -3.089000000     5.503000000
O     3.239000000    -3.483000000     5.641000000
C     4.180000000    -3.581000000     4.617000000
C     4.320000000    -2.509000000     3.700000000
H     3.779000000    -1.580000000     3.858000000
C     4.867000000    -4.710000000     4.317000000
H     4.805000000    -5.569000000     4.981000000
C     5.777000000    -4.718000000     3.228000000
H     6.186000000    -5.713000000     3.071000000
C     5.918000000    -3.678000000     2.287000000
H     6.469000000    -3.652000000     1.350000000
C     5.225000000    -2.543000000     2.596000000
O     5.396000000    -1.414000000     1.811000000
C     5.261000000    -1.296000000     0.403000000
C     6.061000000    -0.452000000    -0.366000000
H     6.893000000     0.069000000     0.098000000
C     5.730000000    -0.310000000    -1.702000000
O     6.525000000     0.435000000    -2.498000000
C     6.131000000     1.336000000    -3.482000000
C     4.974000000     2.028000000    -3.366000000
H     4.316000000     1.940000000    -2.505000000
C     7.116000000     1.758000000    -4.370000000
H     8.112000000     1.323000000    -4.359000000
C     6.823000000     2.672000000    -5.371000000
H     7.646000000     2.864000000    -6.055000000
C     5.666000000     3.380000000    -5.283000000
H     5.468000000     4.191000000    -5.979000000
C     4.765000000     3.112000000    -4.234000000
O     3.739000000     4.055000000    -4.046000000
C     2.509000000     3.858000000    -3.473000000
C     2.035000000     4.904000000    -2.693000000
H     2.605000000     5.824000000    -2.601000000
C     0.702000000     4.959000000    -2.368000000
O     0.290000000     6.026000000    -1.634000000
C    -1.006000000     6.345000000    -1.417000000
C    -1.748000000     7.166000000    -2.268000000
H    -1.312000000     7.587000000    -3.170000000
C    -3.039000000     7.583000000    -1.894000000
H    -3.623000000     8.164000000    -2.604000000
C    -3.579000000     7.166000000    -0.670000000
H    -4.548000000     7.494000000    -0.303000000
C    -2.817000000     6.429000000     0.194000000
C    -1.532000000     6.019000000    -0.228000000
H    -0.985000000     5.436000000     0.508000000
C     1.948000000     0.560000000     1.946000000
H     2.789000000     0.250000000     2.561000000
C     1.207000000    -0.395000000     1.236000000
H     1.344000000    -1.468000000     1.344000000
C     0.230000000     0.159000000     0.390000000
H    -0.336000000    -0.556000000    -0.247000000
C    -0.082000000     1.536000000     0.372000000
H    -0.881000000     1.879000000    -0.281000000
C     0.593000000     2.475000000     1.139000000
H     0.427000000     3.549000000     1.151000000
C     1.693000000     1.969000000     1.875000000
C     2.483000000     3.006000000     2.600000000
O     2.491000000     4.135000000     2.157000000
O     3.336000000     2.746000000     3.478000000
O     0.722000000     5.836000000     7.595000000
H     0.397000000     5.053000000     8.039000000
H     0.912000000     5.545000000     6.703000000
O     4.457000000    -0.827000000     6.716000000
H     5.375000000    -0.995000000     6.932000000
H     4.483000000    -0.060000000     6.143000000
O     2.624000000     1.006000000     8.344000000
H     3.100000000     1.221000000     9.146000000
H     3.246000000     0.493000000     7.827000000
O     0.535000000     5.766000000     3.470000000
H     1.417000000     5.407000000     3.368000000
H     0.139000000     5.235000000     4.161000000
O     5.401000000     7.024000000     4.397000000
H     5.089000000     7.294000000     5.261000000
H     5.095000000     7.712000000     3.806000000
O     4.968000000     7.402000000     0.319000000
H     4.407000000     6.929000000     0.934000000
H     4.979000000     6.855000000    -0.466000000
O     5.180000000     5.006000000     2.513000000
H     4.318000000     4.596000000     2.586000000
H     5.178000000     5.689000000     3.184000000
O     4.595000000     1.551000000     5.545000000
H     3.962000000     1.744000000     4.854000000
H     5.282000000     2.208000000     5.430000000
O     5.860000000     2.307000000     2.657000000
H     5.027000000     2.582000000     3.040000000
H     6.046000000     2.968000000     1.989000000
O     4.303000000     3.721000000     7.604000000
H     5.017000000     3.716000000     6.966000000
H     4.385000000     2.885000000     8.062000000
O     2.412000000     4.051000000     5.653000000
H     2.742000000     3.447000000     4.988000000
H     3.030000000     3.968000000     6.380000000
O     2.635000000     6.870000000     1.668000000
H     1.720000000     7.144000000     1.605000000
H     2.592000000     5.930000000     1.841000000
O     0.718000000     3.171000000     7.920000000
H     1.337000000     2.527000000     8.264000000
H     1.040000000     3.366000000     7.040000000
O     3.870000000     8.907000000     3.093000000
H     3.263000000     9.396000000     3.649000000
H     3.314000000     8.511000000     2.422000000
O     5.417000000     3.456000000    -0.579000000
H     4.673000000     3.587000000     0.009000000
H     5.333000000     4.153000000    -1.230000000
O     7.572000000     0.187000000     2.939000000
H     6.996000000    -0.540000000     2.704000000
H     6.999000000     0.954000000     2.949000000
O     7.411000000     5.056000000     0.882000000
H     6.827000000     4.413000000     0.481000000
H     6.837000000     5.594000000     1.427000000
O    -0.379000000     8.096000000     2.639000000
H    -0.734000000     8.382000000     3.481000000
H    -0.209000000     7.161000000     2.756000000
O     6.407000000     3.936000000     5.642000000
H     7.292000000     3.921000000     5.276000000
H     6.074000000     4.807000000     5.425000000
