215
-1459.88689
C     1.600000000    -2.887000000     4.264000000
H     2.130000000    -3.378000000     3.451000000
C     0.210000000    -2.757000000     4.075000000
C    -0.490000000    -2.105000000     5.122000000
H    -1.520000000    -1.814000000     4.932000000
C    -0.503000000    -3.298000000     2.871000000
O     0.204000000    -4.467000000     2.361000000
H    -0.564000000    -2.496000000     2.121000000
O    -1.840000000    -3.647000000     3.154000000
C    -2.851000000    -3.278000000     2.244000000
C    -3.419000000    -2.068000000     2.564000000
H    -3.180000000    -1.563000000     3.496000000
C    -4.135000000    -1.386000000     1.581000000
O    -4.421000000    -0.121000000     1.742000000
C    -4.412000000    -2.047000000     0.395000000
C    -5.200000000    -1.420000000    -0.716000000
H    -5.734000000    -2.233000000    -1.212000000
C    -4.374000000    -0.516000000    -1.674000000
C    -3.957000000    -1.035000000    -2.898000000
H    -4.189000000    -2.066000000    -3.153000000
H    -6.020000000    -0.842000000    -0.283000000
C    -3.901000000    -3.323000000     0.092000000
H    -4.258000000    -3.835000000    -0.798000000
C    -2.966000000    -3.899000000     1.000000000
C    -2.229000000    -5.221000000     0.706000000
H    -2.824000000    -5.785000000    -0.015000000
H    -2.087000000    -5.804000000     1.618000000
C    -0.827000000    -4.979000000     0.156000000
C    -0.594000000    -4.879000000    -1.221000000
H    -1.512000000    -5.020000000    -1.786000000
C     0.326000000    -4.704000000     1.014000000
C     1.528000000    -4.235000000     0.507000000
H     2.350000000    -4.063000000     1.197000000
C     1.650000000    -4.187000000    -0.873000000
O     2.773000000    -3.557000000    -1.468000000
C     2.656000000    -2.183000000    -1.796000000
C     3.829000000    -1.419000000    -1.214000000
C     4.213000000    -0.293000000    -1.915000000
H     3.820000000    -0.001000000    -2.885000000
C     4.391000000    -1.716000000     0.028000000
H     4.058000000    -2.583000000     0.592000000
O     2.700000000    -2.127000000    -3.243000000
H     1.727000000    -1.652000000    -1.540000000
C     0.618000000    -4.549000000    -1.761000000
C     0.815000000    -4.376000000    -3.286000000
H     0.101000000    -5.039000000    -3.779000000
H     1.777000000    -4.748000000    -3.643000000
C     0.534000000    -3.009000000    -3.832000000
C    -0.762000000    -2.717000000    -4.200000000
H    -1.492000000    -3.517000000    -4.289000000
C     1.483000000    -1.973000000    -3.874000000
C     1.216000000    -0.724000000    -4.397000000
H     1.976000000     0.053000000    -4.366000000
C    -0.085000000    -0.444000000    -4.743000000
O    -0.251000000     0.822000000    -5.141000000
C    -0.801000000     1.679000000    -4.108000000
C    -0.063000000     3.000000000    -4.028000000
C     1.195000000     3.193000000    -4.612000000
H     1.615000000     2.416000000    -5.246000000
C    -0.631000000     4.019000000    -3.263000000
H    -1.627000000     3.883000000    -2.849000000
O    -2.235000000     1.913000000    -4.361000000
H    -0.835000000     1.135000000    -3.152000000
C    -1.129000000    -1.375000000    -4.561000000
C    -2.487000000    -0.920000000    -4.976000000
H    -3.013000000    -1.796000000    -5.360000000
H    -2.483000000    -0.341000000    -5.902000000
C    -3.256000000    -0.255000000    -3.827000000
C    -3.060000000     1.121000000    -3.544000000
C    -3.502000000     1.680000000    -2.312000000
H    -3.435000000     2.709000000    -1.967000000
C    -4.067000000     0.819000000    -1.416000000
O    -4.433000000     1.334000000    -0.190000000
C    -3.751000000     0.865000000     0.979000000
H    -2.733000000     0.580000000     0.675000000
C    -3.501000000     2.054000000     1.873000000
C    -2.699000000     1.947000000     3.016000000
H    -2.366000000     0.961000000     3.328000000
C    -3.781000000     3.367000000     1.362000000
H    -4.401000000     3.569000000     0.492000000
C    -3.284000000     4.458000000     2.021000000
O    -3.472000000     5.698000000     1.556000000
C    -2.555000000     4.363000000     3.242000000
H    -2.193000000     5.255000000     3.747000000
C    -2.282000000     3.045000000     3.687000000
O    -1.469000000     2.891000000     4.812000000
C    -1.773000000     2.093000000     5.850000000
C    -0.896000000     0.989000000     6.037000000
H     0.078000000     0.965000000     5.555000000
C    -3.048000000     2.151000000     6.412000000
H    -3.676000000     3.010000000     6.191000000
C    -3.339000000     1.151000000     7.335000000
H    -4.278000000     1.229000000     7.877000000
C    -2.467000000     0.098000000     7.596000000
H    -2.795000000    -0.662000000     8.301000000
C    -1.235000000     0.025000000     6.967000000
O    -0.441000000    -1.021000000     7.300000000
C     0.181000000    -1.698000000     6.287000000
C     1.540000000    -2.012000000     6.476000000
H     2.031000000    -1.665000000     7.382000000
C     2.260000000    -2.557000000     5.417000000
O     3.590000000    -2.729000000     5.532000000
C     4.446000000    -2.989000000     4.543000000
C     4.857000000    -1.989000000     3.682000000
H     4.565000000    -0.946000000     3.770000000
C     4.767000000    -4.321000000     4.360000000
H     4.316000000    -5.033000000     5.047000000
C     5.618000000    -4.643000000     3.290000000
H     5.950000000    -5.656000000     3.079000000
C     6.100000000    -3.623000000     2.395000000
H     6.819000000    -3.884000000     1.623000000
C     5.689000000    -2.284000000     2.552000000
O     6.026000000    -1.158000000     1.774000000
C     5.428000000    -0.938000000     0.537000000
C     5.799000000     0.206000000    -0.212000000
H     6.615000000     0.807000000     0.183000000
C     5.188000000     0.564000000    -1.405000000
O     5.787000000     1.628000000    -2.009000000
C     5.518000000     2.186000000    -3.221000000
C     4.377000000     2.971000000    -3.482000000
H     3.650000000     3.004000000    -2.674000000
C     6.384000000     1.944000000    -4.248000000
H     7.242000000     1.349000000    -3.947000000
C     6.120000000     2.523000000    -5.523000000
H     6.635000000     2.152000000    -6.406000000
C     5.035000000     3.368000000    -5.755000000
H     4.937000000     3.890000000    -6.704000000
C     4.226000000     3.615000000    -4.694000000
O     3.181000000     4.535000000    -4.944000000
C     1.950000000     4.316000000    -4.405000000
C     1.386000000     5.276000000    -3.547000000
H     1.921000000     6.171000000    -3.241000000
C     0.094000000     5.104000000    -2.966000000
O    -0.384000000     6.080000000    -2.063000000
C    -1.689000000     6.093000000    -1.616000000
C    -2.679000000     6.651000000    -2.384000000
H    -2.531000000     6.801000000    -3.450000000
C    -3.918000000     6.911000000    -1.847000000
H    -4.652000000     7.437000000    -2.452000000
C    -4.222000000     6.586000000    -0.523000000
H    -5.226000000     6.790000000    -0.162000000
C    -3.248000000     6.009000000     0.213000000
C    -2.003000000     5.714000000    -0.332000000
H    -1.202000000     5.260000000     0.245000000
C     1.993000000     0.641000000     1.535000000
H     2.834000000     0.369000000     2.168000000
C     1.336000000    -0.344000000     0.878000000
H     1.677000000    -1.373000000     0.955000000
C     0.190000000    -0.042000000     0.113000000
H    -0.314000000    -0.778000000    -0.485000000
C    -0.193000000     1.253000000    -0.025000000
H    -1.026000000     1.576000000    -0.645000000
C     0.467000000     2.199000000     0.711000000
H     0.234000000     3.257000000     0.621000000
C     1.544000000     1.933000000     1.474000000
C     2.241000000     3.070000000     2.209000000
O     2.084000000     4.260000000     1.865000000
O     3.297000000     2.819000000     2.755000000
O     4.487000000     0.495000000     6.977000000
H     4.716000000    -0.414000000     6.781000000
H     4.741000000     0.981000000     6.193000000
O     2.158000000     2.080000000     7.532000000
H     2.946000000     1.656000000     7.191000000
H     2.474000000     2.895000000     7.922000000
O     0.667000000     6.617000000     1.983000000
H     1.313000000     5.953000000     1.741000000
H     0.403000000     6.382000000     2.872000000
O     3.063000000     7.198000000     6.172000000
H     3.394000000     6.337000000     5.915000000
H     3.758000000     7.807000000     5.920000000
O     1.805000000     7.581000000    -0.077000000
H     1.301000000     7.136000000     0.604000000
H     2.077000000     6.880000000    -0.670000000
O     4.204000000     6.057000000     2.365000000
H     3.503000000     5.452000000     2.124000000
H     4.302000000     5.945000000     3.311000000
O     4.955000000     1.385000000     4.479000000
H     4.466000000     1.773000000     3.753000000
H     5.763000000     1.065000000     4.080000000
O     4.238000000     8.636000000     1.598000000
H     4.179000000     7.698000000     1.776000000
H     3.430000000     8.841000000     1.127000000
O     5.462000000     3.350000000     1.397000000
H     4.540000000     3.111000000     1.494000000
H     5.680000000     3.802000000     2.213000000
O     3.613000000     4.599000000     4.776000000
H     4.541000000     4.378000000     4.855000000
H     3.296000000     4.051000000     4.058000000
O     0.272000000     5.202000000     4.439000000
H    -0.109000000     4.325000000     4.407000000
H     1.211000000     5.060000000     4.314000000
O     2.415000000     5.002000000    -0.820000000
H     1.517000000     4.839000000    -1.110000000
H     2.455000000     4.627000000     0.060000000
O    -0.223000000     5.083000000     7.282000000
H     0.470000000     4.641000000     7.771000000
H    -0.034000000     4.885000000     6.365000000
O     8.203000000     4.810000000    -1.219000000
H     7.524000000     4.998000000    -0.571000000
H     7.747000000     4.843000000    -2.060000000
O     5.289000000     5.294000000    -0.579000000
H     5.268000000     4.591000000     0.070000000
H     4.454000000     5.220000000    -1.040000000
O     7.450000000     0.953000000     3.196000000
H     7.284000000     1.309000000     2.323000000
H     7.728000000     1.709000000     3.714000000
O     7.119000000     6.718000000     0.804000000
H     6.232000000     6.430000000     0.586000000
H     7.074000000     6.948000000     1.732000000
O    -0.238000000     9.182000000     2.635000000
H    -0.459000000     8.958000000     3.539000000
H    -0.198000000     8.339000000     2.183000000
O     6.523000000     4.501000000     4.896000000
H     6.868000000     4.016000000     5.646000000
H     7.012000000     4.163000000     4.146000000
