215
-1441.24193
C     1.095000000    -3.476000000     3.619000000
H     1.215000000    -4.526000000     3.365000000
C    -0.009000000    -2.718000000     3.264000000
C    -0.205000000    -1.378000000     3.669000000
H    -0.978000000    -0.756000000     3.226000000
C    -0.924000000    -3.233000000     2.210000000
O    -0.606000000    -4.561000000     1.744000000
H    -0.716000000    -2.545000000     1.377000000
O    -2.325000000    -3.258000000     2.674000000
C    -3.192000000    -2.624000000     1.796000000
C    -3.584000000    -1.321000000     2.032000000
H    -3.196000000    -0.838000000     2.925000000
C    -4.431000000    -0.669000000     1.110000000
O    -4.669000000     0.650000000     1.415000000
C    -4.861000000    -1.256000000    -0.064000000
C    -5.613000000    -0.458000000    -1.156000000
H    -6.109000000    -1.146000000    -1.844000000
C    -4.574000000     0.342000000    -1.915000000
C    -4.005000000    -0.159000000    -3.068000000
H    -4.342000000    -1.108000000    -3.477000000
H    -6.335000000     0.167000000    -0.625000000
C    -4.339000000    -2.541000000    -0.383000000
H    -4.661000000    -2.939000000    -1.342000000
C    -3.604000000    -3.196000000     0.596000000
C    -3.067000000    -4.577000000     0.126000000
H    -3.653000000    -4.986000000    -0.700000000
H    -3.220000000    -5.266000000     0.959000000
C    -1.650000000    -4.577000000    -0.383000000
C    -1.475000000    -4.405000000    -1.771000000
H    -2.345000000    -4.119000000    -2.356000000
C    -0.555000000    -4.799000000     0.432000000
C     0.721000000    -4.931000000    -0.124000000
H     1.546000000    -5.067000000     0.571000000
C     0.930000000    -4.797000000    -1.539000000
O     2.240000000    -4.579000000    -1.871000000
C     2.582000000    -3.201000000    -2.089000000
C     3.772000000    -2.696000000    -1.274000000
C     4.114000000    -1.367000000    -1.333000000
H     3.613000000    -0.655000000    -1.984000000
C     4.434000000    -3.503000000    -0.353000000
H     4.235000000    -4.559000000    -0.190000000
O     2.530000000    -2.731000000    -3.488000000
H     1.790000000    -2.646000000    -1.565000000
C    -0.178000000    -4.478000000    -2.359000000
C     0.083000000    -4.389000000    -3.820000000
H    -0.780000000    -4.857000000    -4.297000000
H     0.930000000    -5.034000000    -4.064000000
C     0.189000000    -2.938000000    -4.238000000
C    -1.016000000    -2.248000000    -4.455000000
H    -1.935000000    -2.820000000    -4.549000000
C     1.396000000    -2.197000000    -3.994000000
C     1.403000000    -0.825000000    -4.099000000
H     2.318000000    -0.298000000    -3.842000000
C     0.234000000    -0.108000000    -4.465000000
O     0.279000000     1.277000000    -4.553000000
C    -0.209000000     2.053000000    -3.468000000
C     0.679000000     3.239000000    -3.058000000
C     2.001000000     3.170000000    -3.203000000
H     2.505000000     2.303000000    -3.624000000
C     0.127000000     4.366000000    -2.476000000
H    -0.960000000     4.365000000    -2.507000000
O    -1.554000000     2.425000000    -3.828000000
H    -0.356000000     1.384000000    -2.608000000
C    -0.943000000    -0.826000000    -4.598000000
C    -2.309000000    -0.146000000    -4.906000000
H    -3.029000000    -0.858000000    -5.315000000
H    -2.247000000     0.629000000    -5.673000000
C    -2.948000000     0.491000000    -3.751000000
C    -2.555000000     1.764000000    -3.299000000
C    -3.168000000     2.381000000    -2.217000000
H    -2.765000000     3.244000000    -1.692000000
C    -4.140000000     1.636000000    -1.521000000
O    -4.571000000     2.192000000    -0.373000000
C    -3.900000000     1.731000000     0.870000000
H    -2.911000000     1.371000000     0.549000000
C    -3.734000000     2.924000000     1.867000000
C    -3.687000000     2.750000000     3.246000000
H    -3.789000000     1.759000000     3.682000000
C    -3.568000000     4.190000000     1.271000000
H    -3.738000000     4.416000000     0.221000000
C    -3.273000000     5.248000000     2.150000000
O    -3.283000000     6.519000000     1.620000000
C    -3.172000000     5.080000000     3.459000000
H    -2.972000000     5.889000000     4.156000000
C    -3.279000000     3.794000000     4.036000000
O    -2.972000000     3.611000000     5.315000000
C    -2.300000000     2.513000000     5.755000000
C    -1.132000000     2.036000000     5.147000000
H    -0.726000000     2.665000000     4.358000000
C    -2.738000000     1.762000000     6.805000000
H    -3.698000000     2.083000000     7.200000000
C    -2.093000000     0.618000000     7.277000000
H    -2.503000000    -0.030000000     8.048000000
C    -0.999000000     0.168000000     6.548000000
H    -0.526000000    -0.715000000     6.970000000
C    -0.447000000     0.918000000     5.539000000
O     0.664000000     0.512000000     4.887000000
C     0.779000000    -0.791000000     4.463000000
C     1.856000000    -1.556000000     4.953000000
H     2.534000000    -1.078000000     5.655000000
C     2.080000000    -2.856000000     4.461000000
O     3.154000000    -3.595000000     4.957000000
C     4.027000000    -4.283000000     4.120000000
C     4.630000000    -3.665000000     3.048000000
H     4.373000000    -2.657000000     2.731000000
C     4.122000000    -5.664000000     4.307000000
H     3.584000000    -6.099000000     5.146000000
C     4.935000000    -6.387000000     3.450000000
H     5.003000000    -7.468000000     3.543000000
C     5.868000000    -5.745000000     2.543000000
H     6.555000000    -6.282000000     1.894000000
C     5.592000000    -4.425000000     2.301000000
O     6.221000000    -3.780000000     1.232000000
C     5.470000000    -2.979000000     0.394000000
C     5.878000000    -1.658000000     0.255000000
H     6.737000000    -1.345000000     0.844000000
C     5.140000000    -0.841000000    -0.560000000
O     5.551000000     0.460000000    -0.608000000
C     5.604000000     1.309000000    -1.720000000
C     4.900000000     2.437000000    -1.837000000
H     4.204000000     2.728000000    -1.055000000
C     6.365000000     0.896000000    -2.820000000
H     6.848000000    -0.078000000    -2.830000000
C     6.288000000     1.597000000    -4.020000000
H     6.800000000     1.231000000    -4.906000000
C     5.588000000     2.816000000    -4.087000000
H     5.657000000     3.395000000    -5.004000000
C     4.868000000     3.192000000    -2.989000000
O     4.147000000     4.276000000    -2.988000000
C     2.797000000     4.259000000    -2.756000000
C     2.257000000     5.396000000    -2.165000000
H     2.946000000     6.094000000    -1.695000000
C     0.898000000     5.469000000    -2.030000000
O     0.258000000     6.549000000    -1.498000000
C    -1.112000000     6.732000000    -1.220000000
C    -1.979000000     7.185000000    -2.239000000
H    -1.626000000     7.433000000    -3.237000000
C    -3.282000000     7.557000000    -1.944000000
H    -3.765000000     8.149000000    -2.717000000
C    -3.786000000     7.376000000    -0.625000000
H    -4.803000000     7.597000000    -0.312000000
C    -2.932000000     6.780000000     0.309000000
C    -1.570000000     6.565000000     0.087000000
H    -0.875000000     6.090000000     0.775000000
C     2.190000000    -0.493000000     1.367000000
H     2.828000000    -1.285000000     1.753000000
C     1.124000000    -0.871000000     0.513000000
H     0.977000000    -1.907000000     0.221000000
C     0.271000000     0.086000000    -0.012000000
H    -0.443000000    -0.140000000    -0.789000000
C     0.444000000     1.401000000     0.270000000
H    -0.263000000     2.082000000    -0.197000000
C     1.370000000     1.800000000     1.179000000
H     1.444000000     2.870000000     1.356000000
C     2.170000000     0.846000000     1.807000000
C     3.195000000     1.331000000     2.819000000
O     3.330000000     2.520000000     2.853000000
O     3.833000000     0.584000000     3.521000000
O     6.663000000     0.283000000     6.502000000
H     7.277000000    -0.430000000     6.677000000
H     6.924000000     0.619000000     5.644000000
O     2.672000000     1.759000000     8.377000000
H     3.209000000     1.311000000     9.030000000
H     3.111000000     1.584000000     7.545000000
O     3.323000000     4.799000000     1.594000000
H     3.958000000     4.536000000     0.928000000
H     3.129000000     3.992000000     2.071000000
O     3.399000000     5.188000000     6.185000000
H     3.983000000     4.953000000     5.464000000
H     2.722000000     4.512000000     6.176000000
O     5.014000000     6.848000000     3.086000000
H     4.329000000     7.114000000     3.699000000
H     4.538000000     6.520000000     2.322000000
O     4.940000000     4.225000000     4.208000000
H     4.904000000     5.007000000     3.657000000
H     4.515000000     3.544000000     3.686000000
O     6.002000000    -0.880000000     3.768000000
H     5.063000000    -0.721000000     3.669000000
H     6.418000000    -0.171000000     3.279000000
O     7.164000000     4.310000000     2.443000000
H     8.100000000     4.425000000     2.280000000
H     6.993000000     3.395000000     2.217000000
O     6.586000000    -3.176000000     5.282000000
H     6.261000000    -2.519000000     4.667000000
H     7.270000000    -2.723000000     5.777000000
O     6.277000000     1.358000000     2.109000000
H     5.395000000     1.323000000     2.480000000
H     6.178000000     1.009000000     1.223000000
O     4.106000000     1.149000000     6.213000000
H     5.029000000     0.979000000     6.397000000
H     4.035000000     1.085000000     5.261000000
O     1.788000000     3.376000000     4.845000000
H     1.531000000     2.548000000     5.251000000
H     2.127000000     3.126000000     3.986000000
O     5.770000000     4.831000000     0.243000000
H     6.188000000     5.069000000     1.070000000
H     6.491000000     4.544000000    -0.317000000
O     0.792000000     6.128000000     4.633000000
H     0.122000000     6.174000000     5.314000000
H     1.145000000     5.241000000     4.703000000
O     2.181000000     7.117000000     0.623000000
H     2.609000000     6.267000000     0.729000000
H     1.299000000     6.904000000     0.315000000
O     7.664000000     3.305000000    -1.005000000
H     7.019000000     2.673000000    -1.322000000
H     8.292000000     3.387000000    -1.723000000
O     7.198000000     3.362000000     5.658000000
H     7.728000000     2.707000000     5.204000000
H     6.666000000     3.759000000     4.968000000
O     8.344000000     1.540000000     4.052000000
H     9.085000000     0.957000000     3.883000000
H     7.788000000     1.450000000     3.278000000
O     4.263000000    -1.848000000     7.158000000
H     4.576000000    -0.976000000     6.915000000
H     5.045000000    -2.306000000     7.465000000
