215
-1440.81086
C     0.140000000    -3.226000000     4.136000000
H     0.295000000    -3.973000000     3.362000000
C    -1.101000000    -2.585000000     4.040000000
C    -1.458000000    -1.736000000     5.113000000
H    -2.389000000    -1.176000000     5.142000000
C    -1.972000000    -2.798000000     2.870000000
O    -1.999000000    -4.161000000     2.449000000
H    -1.561000000    -2.180000000     2.058000000
O    -3.265000000    -2.211000000     3.018000000
C    -3.799000000    -1.465000000     1.960000000
C    -3.859000000    -0.062000000     2.141000000
H    -3.450000000     0.389000000     3.042000000
C    -4.364000000     0.775000000     1.158000000
O    -4.247000000     2.111000000     1.437000000
C    -4.777000000     0.257000000    -0.025000000
C    -5.406000000     1.079000000    -1.194000000
H    -6.242000000     0.617000000    -1.723000000
C    -4.328000000     1.659000000    -2.094000000
C    -3.893000000     0.792000000    -3.158000000
H    -4.208000000    -0.247000000    -3.204000000
H    -5.948000000     1.874000000    -0.678000000
C    -4.768000000    -1.184000000    -0.225000000
H    -5.126000000    -1.562000000    -1.179000000
C    -4.329000000    -2.012000000     0.777000000
C    -4.240000000    -3.507000000     0.646000000
H    -4.964000000    -3.837000000    -0.101000000
H    -4.510000000    -4.000000000     1.583000000
C    -2.810000000    -3.945000000     0.207000000
C    -2.556000000    -3.911000000    -1.194000000
H    -3.313000000    -3.696000000    -1.943000000
C    -1.785000000    -4.362000000     1.072000000
C    -0.536000000    -4.830000000     0.522000000
H     0.237000000    -5.267000000     1.149000000
C    -0.341000000    -4.746000000    -0.837000000
O     0.930000000    -4.835000000    -1.384000000
C     1.548000000    -3.603000000    -1.641000000
C     2.959000000    -3.500000000    -1.092000000
C     3.696000000    -2.332000000    -1.340000000
H     3.294000000    -1.539000000    -1.965000000
C     3.452000000    -4.399000000    -0.162000000
H     2.815000000    -5.215000000     0.170000000
O     1.576000000    -3.311000000    -3.075000000
H     1.010000000    -2.846000000    -1.052000000
C    -1.354000000    -4.323000000    -1.679000000
C    -1.176000000    -4.241000000    -3.208000000
H    -2.151000000    -4.433000000    -3.662000000
H    -0.450000000    -4.939000000    -3.630000000
C    -0.685000000    -2.898000000    -3.765000000
C    -1.659000000    -1.997000000    -4.204000000
H    -2.702000000    -2.293000000    -4.288000000
C     0.593000000    -2.475000000    -3.607000000
C     1.042000000    -1.208000000    -3.960000000
H     2.061000000    -0.913000000    -3.722000000
C     0.058000000    -0.329000000    -4.463000000
O     0.438000000     0.923000000    -4.807000000
C     0.274000000     2.022000000    -3.904000000
C     1.600000000     2.847000000    -3.796000000
C     2.820000000     2.205000000    -3.849000000
H     2.871000000     1.140000000    -4.063000000
C     1.477000000     4.166000000    -3.405000000
H     0.518000000     4.597000000    -3.128000000
O    -0.936000000     2.770000000    -4.231000000
H     0.147000000     1.544000000    -2.921000000
C    -1.284000000    -0.701000000    -4.590000000
C    -2.313000000     0.295000000    -5.033000000
H    -3.170000000    -0.239000000    -5.448000000
H    -1.943000000     0.915000000    -5.852000000
C    -2.772000000     1.225000000    -3.850000000
C    -2.144000000     2.456000000    -3.622000000
C    -2.503000000     3.239000000    -2.551000000
H    -1.873000000     4.059000000    -2.215000000
C    -3.673000000     2.910000000    -1.810000000
O    -3.888000000     3.493000000    -0.541000000
C    -3.301000000     2.785000000     0.585000000
H    -2.606000000     1.965000000     0.351000000
C    -2.461000000     3.760000000     1.429000000
C    -2.064000000     3.305000000     2.735000000
H    -2.522000000     2.429000000     3.187000000
C    -1.884000000     4.939000000     0.906000000
H    -2.118000000     5.189000000    -0.125000000
C    -0.949000000     5.677000000     1.634000000
O    -0.353000000     6.784000000     1.131000000
C    -0.708000000     5.302000000     2.919000000
H    -0.193000000     5.971000000     3.604000000
C    -1.247000000     4.171000000     3.484000000
O    -0.961000000     3.847000000     4.834000000
C    -1.601000000     2.888000000     5.572000000
C    -0.896000000     1.768000000     5.939000000
H     0.141000000     1.702000000     5.618000000
C    -2.893000000     3.128000000     6.051000000
H    -3.298000000     4.101000000     5.786000000
C    -3.471000000     2.167000000     6.865000000
H    -4.476000000     2.372000000     7.225000000
C    -2.864000000     0.980000000     7.118000000
H    -3.457000000     0.196000000     7.582000000
C    -1.548000000     0.739000000     6.693000000
O    -0.921000000    -0.475000000     7.025000000
C    -0.532000000    -1.403000000     6.094000000
C     0.703000000    -2.073000000     6.081000000
H     1.448000000    -1.835000000     6.837000000
C     1.066000000    -2.978000000     5.078000000
O     2.255000000    -3.681000000     5.205000000
C     2.822000000    -4.678000000     4.419000000
C     3.843000000    -4.338000000     3.552000000
H     4.220000000    -3.318000000     3.560000000
C     2.370000000    -5.995000000     4.488000000
H     1.635000000    -6.349000000     5.207000000
C     2.905000000    -6.914000000     3.640000000
H     2.492000000    -7.920000000     3.658000000
C     3.858000000    -6.599000000     2.608000000
H     4.150000000    -7.289000000     1.821000000
C     4.348000000    -5.272000000     2.583000000
O     5.164000000    -4.905000000     1.515000000
C     4.639000000    -4.113000000     0.550000000
C     5.430000000    -3.054000000     0.207000000
H     6.452000000    -2.945000000     0.562000000
C     4.922000000    -2.166000000    -0.746000000
O     5.727000000    -1.036000000    -1.026000000
C     5.916000000    -0.608000000    -2.265000000
C     5.542000000     0.707000000    -2.534000000
H     5.105000000     1.296000000    -1.732000000
C     6.442000000    -1.373000000    -3.252000000
H     6.716000000    -2.381000000    -2.951000000
C     6.432000000    -0.927000000    -4.564000000
H     6.801000000    -1.517000000    -5.399000000
C     6.032000000     0.400000000    -4.871000000
H     5.814000000     0.734000000    -5.882000000
C     5.575000000     1.157000000    -3.825000000
O     5.210000000     2.462000000    -4.104000000
C     3.941000000     2.963000000    -3.766000000
C     3.832000000     4.294000000    -3.290000000
H     4.693000000     4.868000000    -2.957000000
C     2.615000000     4.909000000    -3.121000000
O     2.581000000     6.110000000    -2.553000000
C     1.452000000     6.680000000    -2.050000000
C     0.811000000     7.799000000    -2.659000000
H     1.147000000     8.203000000    -3.611000000
C    -0.414000000     8.185000000    -2.140000000
H    -1.018000000     8.905000000    -2.686000000
C    -0.847000000     7.863000000    -0.914000000
H    -1.722000000     8.378000000    -0.525000000
C    -0.103000000     6.940000000    -0.225000000
C     0.969000000     6.326000000    -0.842000000
H     1.580000000     5.645000000    -0.254000000
C     3.060000000    -0.239000000     1.243000000
H     3.781000000    -0.950000000     1.639000000
C     1.849000000    -0.626000000     0.704000000
H     1.514000000    -1.652000000     0.834000000
C     0.969000000     0.313000000     0.192000000
H    -0.060000000    -0.009000000     0.045000000
C     1.268000000     1.660000000     0.126000000
H     0.550000000     2.323000000    -0.350000000
C     2.552000000     2.072000000     0.620000000
H     2.779000000     3.134000000     0.670000000
C     3.435000000     1.136000000     1.251000000
C     4.702000000     1.608000000     1.920000000
O     5.150000000     2.718000000     1.699000000
O     5.328000000     0.731000000     2.584000000
O     6.935000000     4.118000000     2.964000000
H     6.196000000     3.529000000     2.816000000
H     7.691000000     3.537000000     3.047000000
O     3.833000000     6.502000000     1.257000000
H     3.894000000     6.001000000     0.444000000
H     4.549000000     7.135000000     1.203000000
O     8.103000000     1.285000000     7.372000000
H     7.857000000     0.703000000     6.652000000
H     8.655000000     0.745000000     7.938000000
O     8.986000000     2.541000000    -1.730000000
H     9.431000000     1.737000000    -1.997000000
H     8.312000000     2.249000000    -1.116000000
O     6.835000000     5.309000000     5.255000000
H     7.544000000     5.953000000     5.248000000
H     6.929000000     4.841000000     4.425000000
O     7.249000000     1.610000000     4.255000000
H     6.587000000     1.299000000     3.638000000
H     6.746000000     1.974000000     4.983000000
O     9.633000000     2.847000000     4.576000000
H     9.287000000     3.316000000     5.335000000
H     9.023000000     2.120000000     4.445000000
O     8.922000000     5.161000000     0.431000000
H     8.639000000     4.929000000    -0.454000000
H     9.209000000     4.332000000     0.815000000
O     9.498000000     2.918000000     1.428000000
H     9.859000000     2.352000000     2.110000000
H     8.696000000     2.476000000     1.150000000
O     7.313000000     1.289000000     0.146000000
H     6.475000000     1.511000000     0.552000000
H     7.332000000     0.332000000     0.145000000
O     7.855000000    -1.064000000     5.663000000
H     7.510000000    -1.876000000     5.292000000
H     8.805000000    -1.183000000     5.660000000
O     7.016000000     6.908000000     1.888000000
H     7.354000000     6.066000000     1.585000000
H     6.290000000     6.681000000     2.469000000
O     5.350000000     4.966000000    -0.442000000
H     5.186000000     4.242000000     0.163000000
H     6.163000000     4.726000000    -0.887000000
O     7.079000000    -1.122000000     2.168000000
H     6.329000000    -0.531000000     2.237000000
H     6.865000000    -1.851000000     2.750000000
O     3.701000000    -0.209000000     6.951000000
H     4.299000000    -0.541000000     6.280000000
H     3.541000000     0.701000000     6.699000000
O     9.643000000     0.109000000     2.161000000
H     9.429000000    -0.715000000     1.725000000
H     8.894000000     0.280000000     2.732000000
O     5.083000000    -0.696000000     4.806000000
H     5.969000000    -0.403000000     5.020000000
H     4.862000000    -0.222000000     4.004000000
O     3.606000000     7.039000000     4.359000000
H     3.079000000     7.734000000     3.966000000
H     3.423000000     6.267000000     3.824000000
O     5.431000000     2.903000000     5.863000000
H     4.817000000     3.037000000     6.585000000
H     5.868000000     3.748000000     5.760000000
