215
-1427.77241
C     0.533000000    -3.141000000     3.714000000
H     0.867000000    -3.850000000     2.960000000
C    -0.764000000    -2.648000000     3.653000000
C    -1.082000000    -1.774000000     4.622000000
H    -2.088000000    -1.366000000     4.570000000
C    -1.675000000    -2.933000000     2.540000000
O    -1.534000000    -4.275000000     2.052000000
H    -1.392000000    -2.195000000     1.775000000
O    -3.076000000    -2.640000000     2.839000000
C    -3.700000000    -1.847000000     1.949000000
C    -3.796000000    -0.500000000     2.156000000
H    -3.290000000    -0.037000000     3.000000000
C    -4.241000000     0.322000000     1.138000000
O    -3.998000000     1.680000000     1.382000000
C    -4.800000000    -0.184000000    -0.047000000
C    -5.373000000     0.775000000    -1.104000000
H    -6.090000000     0.267000000    -1.751000000
C    -4.262000000     1.380000000    -1.989000000
C    -3.953000000     0.727000000    -3.192000000
H    -4.687000000    -0.024000000    -3.473000000
H    -5.845000000     1.671000000    -0.694000000
C    -4.820000000    -1.593000000    -0.254000000
H    -5.183000000    -1.978000000    -1.204000000
C    -4.210000000    -2.427000000     0.730000000
C    -3.962000000    -3.921000000     0.342000000
H    -4.729000000    -4.225000000    -0.373000000
H    -4.038000000    -4.583000000     1.207000000
C    -2.506000000    -4.141000000    -0.165000000
C    -2.301000000    -4.277000000    -1.578000000
H    -3.170000000    -4.159000000    -2.219000000
C    -1.407000000    -4.420000000     0.701000000
C    -0.167000000    -4.771000000     0.162000000
H     0.702000000    -4.880000000     0.806000000
C     0.003000000    -4.778000000    -1.216000000
O     1.241000000    -4.851000000    -1.712000000
C     1.854000000    -3.563000000    -1.995000000
C     3.280000000    -3.619000000    -1.501000000
C     4.163000000    -2.538000000    -1.688000000
H     3.827000000    -1.693000000    -2.283000000
C     3.647000000    -4.547000000    -0.538000000
H     2.929000000    -5.253000000    -0.129000000
O     1.786000000    -3.179000000    -3.404000000
H     1.295000000    -2.778000000    -1.465000000
C    -1.094000000    -4.534000000    -2.109000000
C    -0.963000000    -4.376000000    -3.621000000
H    -1.841000000    -4.650000000    -4.209000000
H    -0.147000000    -4.990000000    -4.008000000
C    -0.549000000    -2.991000000    -4.020000000
C    -1.523000000    -2.072000000    -4.405000000
H    -2.532000000    -2.412000000    -4.623000000
C     0.717000000    -2.448000000    -3.865000000
C     1.049000000    -1.098000000    -4.069000000
H     2.044000000    -0.793000000    -3.753000000
C     0.070000000    -0.225000000    -4.588000000
O     0.362000000     1.106000000    -4.863000000
C     0.033000000     2.191000000    -3.875000000
C     1.102000000     3.243000000    -3.776000000
C     2.312000000     2.787000000    -3.385000000
H     2.355000000     1.702000000    -3.334000000
C     0.801000000     4.630000000    -3.717000000
H    -0.192000000     5.039000000    -3.885000000
O    -1.191000000     2.807000000    -4.254000000
H    -0.068000000     1.588000000    -2.960000000
C    -1.288000000    -0.689000000    -4.651000000
C    -2.363000000     0.262000000    -5.125000000
H    -3.217000000    -0.303000000    -5.504000000
H    -2.037000000     0.908000000    -5.943000000
C    -2.834000000     1.137000000    -4.012000000
C    -2.245000000     2.283000000    -3.604000000
C    -2.561000000     2.962000000    -2.438000000
H    -2.168000000     3.958000000    -2.251000000
C    -3.502000000     2.488000000    -1.658000000
O    -3.635000000     3.147000000    -0.500000000
C    -3.040000000     2.532000000     0.675000000
H    -2.361000000     1.767000000     0.272000000
C    -2.260000000     3.425000000     1.609000000
C    -2.181000000     3.223000000     2.997000000
H    -2.651000000     2.375000000     3.488000000
C    -1.538000000     4.487000000     1.102000000
H    -1.436000000     4.613000000     0.027000000
C    -0.729000000     5.275000000     1.942000000
O     0.114000000     6.275000000     1.442000000
C    -0.777000000     5.096000000     3.359000000
H    -0.152000000     5.703000000     4.009000000
C    -1.422000000     3.978000000     3.848000000
O    -1.423000000     3.752000000     5.175000000
C    -1.868000000     2.614000000     5.749000000
C    -1.046000000     1.486000000     5.896000000
H    -0.013000000     1.601000000     5.579000000
C    -3.228000000     2.504000000     6.136000000
H    -3.837000000     3.404000000     6.162000000
C    -3.607000000     1.364000000     6.875000000
H    -4.582000000     1.403000000     7.353000000
C    -2.752000000     0.292000000     7.023000000
H    -3.060000000    -0.582000000     7.591000000
C    -1.516000000     0.356000000     6.510000000
O    -0.547000000    -0.553000000     6.734000000
C    -0.255000000    -1.467000000     5.732000000
C     1.110000000    -1.944000000     5.688000000
H     1.806000000    -1.624000000     6.459000000
C     1.492000000    -2.842000000     4.723000000
O     2.820000000    -3.197000000     4.581000000
C     3.169000000    -4.410000000     3.999000000
C     4.047000000    -4.312000000     2.888000000
H     4.436000000    -3.361000000     2.534000000
C     2.637000000    -5.596000000     4.391000000
H     2.073000000    -5.599000000     5.320000000
C     3.119000000    -6.761000000     3.676000000
H     2.914000000    -7.712000000     4.161000000
C     3.971000000    -6.705000000     2.623000000
H     4.304000000    -7.682000000     2.283000000
C     4.392000000    -5.452000000     2.117000000
O     5.245000000    -5.383000000     1.022000000
C     4.930000000    -4.488000000     0.054000000
C     5.794000000    -3.476000000    -0.211000000
H     6.673000000    -3.434000000     0.427000000
C     5.366000000    -2.446000000    -0.988000000
O     6.077000000    -1.258000000    -0.990000000
C     5.838000000    -0.287000000    -1.940000000
C     5.336000000     0.914000000    -1.577000000
H     5.138000000     1.170000000    -0.540000000
C     6.244000000    -0.493000000    -3.251000000
H     6.713000000    -1.427000000    -3.548000000
C     5.926000000     0.507000000    -4.215000000
H     6.293000000     0.401000000    -5.233000000
C     5.342000000     1.741000000    -3.847000000
H     5.082000000     2.493000000    -4.588000000
C     5.035000000     1.923000000    -2.549000000
O     4.415000000     3.160000000    -2.247000000
C     3.280000000     3.695000000    -2.879000000
C     3.019000000     5.032000000    -2.834000000
H     3.707000000     5.692000000    -2.312000000
C     1.770000000     5.561000000    -3.299000000
O     1.439000000     6.934000000    -3.096000000
C     0.593000000     7.271000000    -2.043000000
C    -0.398000000     8.240000000    -2.187000000
H    -0.534000000     8.859000000    -3.070000000
C    -1.083000000     8.659000000    -1.011000000
H    -1.782000000     9.482000000    -1.138000000
C    -0.979000000     7.936000000     0.157000000
H    -1.492000000     8.264000000     1.058000000
C    -0.123000000     6.822000000     0.272000000
C     0.695000000     6.553000000    -0.842000000
H     1.397000000     5.751000000    -0.632000000
C     2.361000000    -0.061000000     1.473000000
H     3.032000000    -0.619000000     2.120000000
C     1.289000000    -0.663000000     0.836000000
H     1.185000000    -1.744000000     0.803000000
C     0.349000000     0.097000000     0.263000000
H    -0.501000000    -0.449000000    -0.160000000
C     0.537000000     1.472000000     0.217000000
H    -0.150000000     2.107000000    -0.337000000
C     1.496000000     2.100000000     0.898000000
H     1.613000000     3.181000000     0.869000000
C     2.467000000     1.318000000     1.578000000
C     3.635000000     1.912000000     2.287000000
O     3.637000000     3.107000000     2.549000000
O     4.616000000     1.247000000     2.512000000
O     3.785000000     5.587000000     0.469000000
H     3.839000000     4.722000000     0.876000000
H     3.271000000     6.110000000     1.084000000
O     2.446000000     6.963000000     2.454000000
H     1.787000000     6.384000000     2.071000000
H     2.324000000     7.797000000     2.001000000
O     7.289000000     3.894000000    -0.859000000
H     6.498000000     3.842000000    -1.395000000
H     6.980000000     4.192000000    -0.004000000
O     9.359000000     2.289000000    -0.065000000
H     9.366000000     2.390000000     0.886000000
H     8.724000000     2.936000000    -0.371000000
O     3.641000000     3.377000000     5.430000000
H     3.546000000     3.047000000     4.536000000
H     2.826000000     3.850000000     5.598000000
O     8.543000000     3.396000000     3.829000000
H     8.322000000     4.252000000     3.461000000
H     7.768000000     2.859000000     3.666000000
O     1.439000000     4.706000000     6.512000000
H     0.729000000     4.072000000     6.609000000
H     1.422000000     5.212000000     7.325000000
O     7.166000000    -1.585000000     4.077000000
H     6.904000000    -1.117000000     3.284000000
H     6.681000000    -1.155000000     4.780000000
O     4.574000000     5.623000000     3.457000000
H     3.830000000     6.193000000     3.264000000
H     4.278000000     4.748000000     3.204000000
O     4.283000000     5.952000000     7.179000000
H     3.808000000     5.593000000     6.429000000
H     4.785000000     5.212000000     7.520000000
O     9.008000000    -1.132000000     0.177000000
H     8.611000000    -1.338000000    -0.669000000
H     8.309000000    -0.703000000     0.671000000
O     6.392000000     3.909000000     1.804000000
H     6.147000000     4.699000000     2.286000000
H     5.811000000     3.230000000     2.147000000
O     6.739000000     0.100000000     6.278000000
H     6.548000000     0.878000000     5.754000000
H     7.690000000     0.112000000     6.387000000
O     4.908000000     7.815000000    -1.363000000
H     5.262000000     7.508000000    -2.198000000
H     4.667000000     7.015000000    -0.896000000
O     6.896000000     1.031000000     1.547000000
H     5.980000000     0.811000000     1.719000000
H     6.880000000     1.961000000     1.321000000
O     4.225000000    -0.962000000     6.737000000
H     3.625000000    -0.279000000     6.439000000
H     5.067000000    -0.727000000     6.349000000
O     7.373000000     5.939000000     3.687000000
H     7.524000000     5.925000000     4.632000000
H     6.424000000     6.026000000     3.597000000
O     6.024000000     1.974000000     4.554000000
H     5.641000000     2.789000000     4.879000000
H     5.536000000     1.783000000     3.753000000
O     2.639000000     1.294000000     7.000000000
H     3.274000000     1.870000000     6.573000000
H     2.195000000     1.856000000     7.635000000
