215
-1452.50236
C     0.338000000    -2.519000000     3.775000000
H     0.638000000    -3.058000000     2.880000000
C    -1.030000000    -2.308000000     3.853000000
C    -1.410000000    -1.406000000     4.855000000
H    -2.431000000    -1.050000000     4.965000000
C    -1.900000000    -2.641000000     2.652000000
O    -1.673000000    -3.980000000     2.187000000
H    -1.652000000    -1.987000000     1.803000000
O    -3.269000000    -2.432000000     2.980000000
C    -3.993000000    -1.691000000     2.081000000
C    -4.239000000    -0.311000000     2.279000000
H    -3.888000000     0.153000000     3.198000000
C    -4.830000000     0.488000000     1.329000000
O    -4.625000000     1.837000000     1.568000000
C    -5.004000000    -0.029000000     0.013000000
C    -5.414000000     0.872000000    -1.060000000
H    -6.084000000     0.403000000    -1.784000000
C    -4.178000000     1.417000000    -1.811000000
C    -3.906000000     0.836000000    -3.085000000
H    -4.468000000    -0.018000000    -3.454000000
H    -6.025000000     1.716000000    -0.730000000
C    -4.834000000    -1.382000000    -0.174000000
H    -5.072000000    -1.889000000    -1.106000000
C    -4.314000000    -2.285000000     0.857000000
C    -4.132000000    -3.699000000     0.519000000
H    -4.927000000    -4.069000000    -0.131000000
H    -4.246000000    -4.365000000     1.378000000
C    -2.762000000    -3.958000000    -0.037000000
C    -2.582000000    -4.118000000    -1.428000000
H    -3.381000000    -4.143000000    -2.164000000
C    -1.609000000    -4.203000000     0.839000000
C    -0.324000000    -4.378000000     0.329000000
H     0.501000000    -4.435000000     1.035000000
C    -0.197000000    -4.435000000    -1.106000000
O     1.125000000    -4.393000000    -1.501000000
C     1.803000000    -3.140000000    -2.040000000
C     3.280000000    -3.132000000    -1.653000000
C     4.229000000    -2.476000000    -2.421000000
H     3.905000000    -1.904000000    -3.286000000
C     3.623000000    -3.675000000    -0.453000000
H     2.775000000    -3.925000000     0.179000000
O     1.613000000    -3.232000000    -3.466000000
H     1.380000000    -2.191000000    -1.679000000
C    -1.287000000    -4.282000000    -1.935000000
C    -1.148000000    -4.252000000    -3.447000000
H    -2.102000000    -4.469000000    -3.932000000
H    -0.390000000    -4.998000000    -3.695000000
C    -0.754000000    -2.800000000    -3.883000000
C    -1.773000000    -1.884000000    -4.226000000
H    -2.837000000    -2.103000000    -4.166000000
C     0.595000000    -2.494000000    -4.117000000
C     0.966000000    -1.138000000    -4.484000000
H     2.029000000    -0.931000000    -4.583000000
C    -0.060000000    -0.224000000    -4.718000000
O     0.351000000     1.110000000    -4.846000000
C     0.162000000     1.957000000    -3.708000000
C     1.477000000     2.721000000    -3.458000000
C     2.743000000     2.210000000    -3.799000000
H     2.751000000     1.194000000    -4.186000000
C     1.390000000     3.921000000    -2.803000000
H     0.435000000     4.354000000    -2.518000000
O    -0.977000000     2.825000000    -3.943000000
H     0.055000000     1.290000000    -2.840000000
C    -1.399000000    -0.611000000    -4.635000000
C    -2.443000000     0.468000000    -5.077000000
H    -3.325000000    -0.049000000    -5.460000000
H    -2.024000000     1.163000000    -5.806000000
C    -2.892000000     1.341000000    -3.844000000
C    -2.089000000     2.425000000    -3.349000000
C    -2.437000000     3.086000000    -2.142000000
H    -1.792000000     3.896000000    -1.812000000
C    -3.507000000     2.568000000    -1.388000000
O    -3.799000000     3.279000000    -0.236000000
C    -3.420000000     2.538000000     0.956000000
H    -2.665000000     1.841000000     0.563000000
C    -2.695000000     3.422000000     2.034000000
C    -2.987000000     3.275000000     3.414000000
H    -3.856000000     2.661000000     3.636000000
C    -1.606000000     4.115000000     1.647000000
H    -1.472000000     4.434000000     0.616000000
C    -0.860000000     4.882000000     2.518000000
O     0.068000000     5.842000000     2.097000000
C    -1.200000000     4.840000000     3.869000000
H    -0.735000000     5.453000000     4.637000000
C    -2.226000000     3.969000000     4.366000000
O    -2.508000000     3.872000000     5.723000000
C    -2.688000000     2.692000000     6.370000000
C    -1.726000000     1.634000000     6.128000000
H    -0.975000000     1.685000000     5.343000000
C    -3.600000000     2.577000000     7.448000000
H    -4.309000000     3.381000000     7.629000000
C    -3.557000000     1.445000000     8.313000000
H    -4.297000000     1.401000000     9.109000000
C    -2.545000000     0.486000000     8.150000000
H    -2.448000000    -0.338000000     8.853000000
C    -1.689000000     0.643000000     7.099000000
O    -0.758000000    -0.351000000     6.969000000
C    -0.422000000    -1.008000000     5.853000000
C     0.895000000    -1.369000000     5.758000000
H     1.681000000    -1.118000000     6.465000000
C     1.245000000    -2.276000000     4.753000000
O     2.582000000    -2.834000000     4.697000000
C     3.061000000    -3.875000000     3.961000000
C     3.971000000    -3.598000000     2.943000000
H     4.215000000    -2.541000000     2.864000000
C     2.621000000    -5.166000000     4.085000000
H     1.970000000    -5.318000000     4.943000000
C     3.144000000    -6.186000000     3.222000000
H     2.871000000    -7.236000000     3.295000000
C     4.076000000    -5.866000000     2.262000000
H     4.441000000    -6.619000000     1.567000000
C     4.518000000    -4.553000000     2.154000000
O     5.462000000    -4.266000000     1.176000000
C     4.950000000    -3.818000000    -0.100000000
C     5.946000000    -3.259000000    -0.945000000
H     6.994000000    -3.276000000    -0.657000000
C     5.609000000    -2.533000000    -2.074000000
O     6.620000000    -1.879000000    -2.714000000
C     6.337000000    -0.947000000    -3.704000000
C     5.811000000     0.281000000    -3.274000000
H     5.763000000     0.506000000    -2.211000000
C     6.512000000    -1.244000000    -5.031000000
H     6.890000000    -2.233000000    -5.281000000
C     6.354000000    -0.282000000    -6.002000000
H     6.584000000    -0.363000000    -7.061000000
C     5.737000000     0.966000000    -5.610000000
H     5.568000000     1.721000000    -6.373000000
C     5.525000000     1.232000000    -4.266000000
O     5.169000000     2.516000000    -3.961000000
C     3.879000000     2.992000000    -3.681000000
C     3.782000000     4.308000000    -3.121000000
H     4.648000000     4.926000000    -2.897000000
C     2.514000000     4.724000000    -2.639000000
O     2.557000000     5.900000000    -1.983000000
C     1.400000000     6.273000000    -1.231000000
C     0.481000000     7.198000000    -1.808000000
H     0.806000000     7.695000000    -2.718000000
C    -0.613000000     7.577000000    -1.055000000
H    -1.327000000     8.308000000    -1.427000000
C    -0.796000000     7.034000000     0.204000000
H    -1.642000000     7.315000000     0.826000000
C     0.212000000     6.234000000     0.732000000
C     1.348000000     5.876000000     0.093000000
H     2.026000000     5.173000000     0.570000000
C     1.904000000    -0.272000000     1.437000000
H     2.716000000    -0.891000000     1.809000000
C     0.696000000    -0.813000000     0.879000000
H     0.575000000    -1.893000000     0.867000000
C    -0.139000000     0.081000000     0.196000000
H    -1.034000000    -0.286000000    -0.401000000
C     0.243000000     1.369000000     0.024000000
H    -0.450000000     1.967000000    -0.563000000
C     1.358000000     1.907000000     0.617000000
H     1.585000000     2.955000000     0.440000000
C     2.266000000     1.080000000     1.286000000
C     3.587000000     1.544000000     1.825000000
O     3.777000000     2.722000000     1.698000000
O     4.354000000     0.808000000     2.466000000
O     9.221000000     1.401000000     3.040000000
H     9.468000000     0.526000000     2.741000000
H     8.401000000     1.589000000     2.582000000
O     3.781000000     6.659000000     4.643000000
H     3.132000000     5.955000000     4.641000000
H     3.502000000     7.245000000     3.940000000
O     9.534000000     0.522000000     0.077000000
H     9.016000000     1.297000000     0.292000000
H    10.367000000     0.657000000     0.529000000
O     6.130000000     2.485000000     3.488000000
H     5.794000000     3.369000000     3.638000000
H     5.521000000     2.102000000     2.856000000
O     7.942000000     4.818000000     2.196000000
H     8.736000000     5.146000000     2.619000000
H     7.324000000     4.690000000     2.915000000
O     2.067000000     2.471000000     7.685000000
H     2.729000000     1.801000000     7.515000000
H     2.181000000     3.105000000     6.976000000
O     4.488000000     6.382000000     0.661000000
H     4.112000000     6.923000000     1.355000000
H     4.537000000     5.505000000     1.040000000
O     6.335000000    -0.702000000     1.869000000
H     5.771000000     0.040000000     2.087000000
H     6.222000000    -0.819000000     0.926000000
O     4.295000000     0.622000000     7.223000000
H     3.939000000     0.480000000     6.346000000
H     5.241000000     0.686000000     7.090000000
O     2.226000000     4.324000000     3.108000000
H     1.398000000     4.317000000     2.628000000
H     2.813000000     3.782000000     2.580000000
O     5.878000000     5.193000000     4.253000000
H     6.274000000     4.941000000     5.087000000
H     5.211000000     5.838000000     4.490000000
O     5.394000000     3.094000000    -0.280000000
H     5.135000000     3.813000000    -0.857000000
H     4.727000000     3.086000000     0.407000000
O     6.695000000     3.630000000     6.552000000
H     6.403000000     3.430000000     7.441000000
H     6.606000000     2.804000000     6.078000000
O     8.970000000     2.570000000    -2.154000000
H     8.347000000     3.236000000    -2.445000000
H     8.566000000     2.188000000    -1.375000000
O     7.877000000     2.816000000     0.420000000
H     6.926000000     2.838000000     0.316000000
H     8.064000000     3.502000000     1.061000000
O     7.135000000     6.014000000    -0.263000000
H     6.258000000     6.398000000    -0.262000000
H     7.169000000     5.492000000     0.539000000
O     3.155000000    -0.020000000     4.576000000
H     3.812000000     0.390000000     4.014000000
H     3.033000000    -0.894000000     4.203000000
O     7.222000000    -1.862000000     4.310000000
H     8.059000000    -2.242000000     4.045000000
H     6.733000000    -1.766000000     3.492000000
O     7.157000000     0.871000000     5.351000000
H     6.981000000     1.490000000     4.643000000
H     7.172000000     0.015000000     4.924000000
