215
-1461.68882
C    -0.038000000    -3.009000000     4.131000000
H     0.449000000    -3.615000000     3.371000000
C    -1.337000000    -2.523000000     3.935000000
C    -1.953000000    -1.811000000     4.962000000
H    -2.972000000    -1.458000000     4.829000000
C    -1.980000000    -2.742000000     2.626000000
O    -1.589000000    -3.991000000     2.048000000
H    -1.656000000    -1.950000000     1.934000000
O    -3.409000000    -2.716000000     2.735000000
C    -4.072000000    -1.902000000     1.891000000
C    -4.156000000    -0.493000000     2.124000000
H    -3.839000000    -0.052000000     3.066000000
C    -4.568000000     0.313000000     1.106000000
O    -4.426000000     1.675000000     1.353000000
C    -4.940000000    -0.178000000    -0.138000000
C    -5.418000000     0.718000000    -1.283000000
H    -6.023000000     0.166000000    -2.005000000
C    -4.159000000     1.185000000    -2.030000000
C    -3.714000000     0.495000000    -3.160000000
H    -4.295000000    -0.332000000    -3.560000000
H    -5.998000000     1.613000000    -1.047000000
C    -4.791000000    -1.539000000    -0.415000000
H    -5.149000000    -1.864000000    -1.389000000
C    -4.281000000    -2.393000000     0.574000000
C    -4.022000000    -3.828000000     0.196000000
H    -4.719000000    -4.063000000    -0.611000000
H    -4.194000000    -4.382000000     1.122000000
C    -2.605000000    -4.094000000    -0.258000000
C    -2.363000000    -4.448000000    -1.584000000
H    -3.176000000    -4.277000000    -2.285000000
C    -1.452000000    -4.181000000     0.668000000
C    -0.242000000    -4.543000000     0.197000000
H     0.537000000    -4.648000000     0.948000000
C     0.014000000    -4.627000000    -1.109000000
O     1.348000000    -4.602000000    -1.391000000
C     1.937000000    -3.399000000    -1.907000000
C     3.326000000    -3.140000000    -1.338000000
C     4.184000000    -2.311000000    -2.090000000
H     3.901000000    -2.008000000    -3.095000000
C     3.573000000    -3.360000000    -0.003000000
H     2.758000000    -3.706000000     0.628000000
O     1.932000000    -3.454000000    -3.359000000
H     1.268000000    -2.626000000    -1.501000000
C    -1.050000000    -4.583000000    -2.038000000
C    -0.759000000    -4.495000000    -3.555000000
H    -1.549000000    -4.903000000    -4.190000000
H    -0.005000000    -5.214000000    -3.881000000
C    -0.370000000    -3.129000000    -4.024000000
C    -1.342000000    -2.219000000    -4.482000000
H    -2.395000000    -2.483000000    -4.426000000
C     0.979000000    -2.689000000    -3.863000000
C     1.251000000    -1.403000000    -4.277000000
H     2.278000000    -1.083000000    -4.124000000
C     0.315000000    -0.478000000    -4.667000000
O     0.689000000     0.839000000    -4.886000000
C     0.486000000     1.786000000    -3.847000000
C     1.702000000     2.696000000    -3.534000000
C     3.002000000     2.367000000    -3.991000000
H     3.160000000     1.600000000    -4.746000000
C     1.586000000     3.851000000    -2.717000000
H     0.560000000     4.055000000    -2.423000000
O    -0.768000000     2.528000000    -4.086000000
H     0.296000000     1.236000000    -2.913000000
C    -0.996000000    -0.932000000    -4.824000000
C    -2.151000000     0.085000000    -5.083000000
H    -3.027000000    -0.396000000    -5.525000000
H    -1.827000000     0.728000000    -5.904000000
C    -2.575000000     0.863000000    -3.913000000
C    -1.932000000     2.076000000    -3.531000000
C    -2.357000000     2.876000000    -2.412000000
H    -1.879000000     3.829000000    -2.201000000
C    -3.410000000     2.342000000    -1.633000000
O    -3.668000000     3.032000000    -0.507000000
C    -3.327000000     2.381000000     0.757000000
H    -2.548000000     1.648000000     0.499000000
C    -2.632000000     3.307000000     1.761000000
C    -2.591000000     3.040000000     3.083000000
H    -3.200000000     2.271000000     3.553000000
C    -1.890000000     4.356000000     1.310000000
H    -1.884000000     4.612000000     0.254000000
C    -1.216000000     5.245000000     2.196000000
O    -0.668000000     6.405000000     1.724000000
C    -1.301000000     5.020000000     3.595000000
H    -0.898000000     5.720000000     4.323000000
C    -1.967000000     3.925000000     4.034000000
O    -2.051000000     3.773000000     5.432000000
C    -2.667000000     2.678000000     5.994000000
C    -2.069000000     1.414000000     6.014000000
H    -1.088000000     1.393000000     5.547000000
C    -3.867000000     2.839000000     6.726000000
H    -4.342000000     3.812000000     6.820000000
C    -4.454000000     1.766000000     7.428000000
H    -5.394000000     1.910000000     7.955000000
C    -3.756000000     0.581000000     7.624000000
H    -4.228000000    -0.176000000     8.245000000
C    -2.607000000     0.388000000     6.817000000
O    -1.890000000    -0.759000000     7.064000000
C    -1.244000000    -1.421000000     6.038000000
C     0.083000000    -1.846000000     6.232000000
H     0.677000000    -1.397000000     7.024000000
C     0.760000000    -2.555000000     5.238000000
O     2.145000000    -2.941000000     5.481000000
C     2.848000000    -3.673000000     4.531000000
C     3.636000000    -3.042000000     3.583000000
H     3.601000000    -1.961000000     3.473000000
C     2.784000000    -5.066000000     4.620000000
H     2.130000000    -5.493000000     5.376000000
C     3.483000000    -5.872000000     3.705000000
H     3.536000000    -6.956000000     3.755000000
C     4.228000000    -5.209000000     2.749000000
H     4.751000000    -5.820000000     2.017000000
C     4.321000000    -3.825000000     2.751000000
O     5.191000000    -3.254000000     1.843000000
C     4.818000000    -3.134000000     0.541000000
C     5.749000000    -2.474000000    -0.243000000
H     6.755000000    -2.288000000     0.124000000
C     5.427000000    -2.144000000    -1.541000000
O     6.461000000    -1.479000000    -2.086000000
C     6.300000000    -0.677000000    -3.191000000
C     5.787000000     0.571000000    -3.132000000
H     5.331000000     0.924000000    -2.210000000
C     6.820000000    -1.080000000    -4.454000000
H     7.245000000    -2.080000000    -4.483000000
C     6.800000000    -0.213000000    -5.528000000
H     7.139000000    -0.519000000    -6.514000000
C     6.390000000     1.123000000    -5.343000000
H     6.518000000     1.826000000    -6.162000000
C     5.841000000     1.471000000    -4.121000000
O     5.396000000     2.796000000    -3.955000000
C     4.144000000     3.121000000    -3.527000000
C     3.936000000     4.272000000    -2.821000000
H     4.839000000     4.754000000    -2.456000000
C     2.653000000     4.685000000    -2.428000000
O     2.460000000     5.881000000    -1.823000000
C     1.220000000     6.357000000    -1.347000000
C     0.604000000     7.436000000    -2.019000000
H     0.953000000     7.833000000    -2.969000000
C    -0.482000000     8.137000000    -1.462000000
H    -0.945000000     9.011000000    -1.913000000
C    -0.912000000     7.725000000    -0.167000000
H    -1.785000000     8.172000000     0.302000000
C    -0.200000000     6.719000000     0.512000000
C     0.886000000     6.043000000    -0.017000000
H     1.469000000     5.347000000     0.580000000
C     1.857000000     0.364000000     1.727000000
H     2.543000000    -0.074000000     2.448000000
C     0.986000000    -0.456000000     0.998000000
H     0.897000000    -1.517000000     1.214000000
C     0.256000000     0.100000000     0.009000000
H    -0.388000000    -0.463000000    -0.712000000
C     0.245000000     1.501000000    -0.182000000
H    -0.487000000     1.994000000    -0.816000000
C     1.027000000     2.334000000     0.630000000
H     1.024000000     3.420000000     0.591000000
C     1.859000000     1.737000000     1.592000000
C     2.820000000     2.645000000     2.221000000
O     2.645000000     3.842000000     2.233000000
O     3.666000000     2.123000000     2.926000000
O     2.466000000     6.026000000     4.051000000
H     2.140000000     5.422000000     3.383000000
H     2.968000000     5.472000000     4.649000000
O     6.442000000     2.839000000     0.102000000
H     5.985000000     2.031000000     0.335000000
H     5.851000000     3.538000000     0.380000000
O     1.227000000     2.803000000     5.164000000
H     0.825000000     3.669000000     5.234000000
H     1.828000000     2.877000000     4.422000000
O     6.895000000    -0.034000000     3.141000000
H     6.292000000     0.108000000     2.412000000
H     7.445000000    -0.764000000     2.859000000
O     5.222000000     3.330000000     6.990000000
H     4.991000000     2.727000000     7.696000000
H     5.363000000     4.169000000     7.428000000
O     3.812000000     6.544000000     6.917000000
H     4.593000000     6.438000000     6.374000000
H     3.369000000     7.310000000     6.552000000
O     5.823000000     6.435000000     5.127000000
H     5.659000000     6.992000000     4.366000000
H     6.022000000     5.575000000     4.756000000
O     8.519000000     4.835000000    -0.751000000
H     8.508000000     5.361000000    -1.551000000
H     7.855000000     4.161000000    -0.899000000
O     5.558000000     3.454000000     4.238000000
H     5.340000000     3.243000000     5.146000000
H     4.910000000     2.977000000     3.719000000
O     4.697000000     4.759000000     0.650000000
H     4.504000000     5.663000000     0.401000000
H     3.907000000     4.462000000     1.101000000
O     4.338000000     7.228000000     0.026000000
H     3.759000000     7.917000000    -0.300000000
H     5.100000000     7.263000000    -0.553000000
O     7.196000000     6.087000000     2.125000000
H     6.484000000     5.623000000     1.685000000
H     7.582000000     5.435000000     2.710000000
O     3.759000000     8.097000000     2.634000000
H     4.123000000     7.677000000     1.854000000
H     3.318000000     7.389000000     3.103000000
O     5.067000000     0.481000000     1.071000000
H     4.455000000     0.141000000     0.418000000
H     4.507000000     0.870000000     1.743000000
O     3.614000000    -0.594000000     7.108000000
H     3.986000000    -0.332000000     6.266000000
H     2.897000000     0.024000000     7.256000000
O     8.990000000     1.820000000    -0.059000000
H     8.103000000     2.110000000     0.152000000
H     9.557000000     2.363000000     0.488000000
O     8.242000000     4.103000000     3.949000000
H     8.546000000     4.453000000     4.787000000
H     7.337000000     3.839000000     4.114000000
O     4.692000000     0.241000000     4.674000000
H     5.571000000     0.511000000     4.407000000
H     4.105000000     0.803000000     4.169000000
O     1.835000000     1.230000000     7.401000000
H     1.660000000     1.685000000     6.577000000
H     1.406000000     1.767000000     8.067000000
