215
-1449.99011
C    -0.019000000    -2.655000000     4.235000000
H     0.408000000    -3.414000000     3.584000000
C    -1.193000000    -2.030000000     3.989000000
C    -1.615000000    -1.076000000     4.937000000
H    -2.534000000    -0.517000000     4.777000000
C    -1.999000000    -2.347000000     2.751000000
O    -2.007000000    -3.705000000     2.410000000
H    -1.503000000    -1.772000000     1.955000000
O    -3.396000000    -1.981000000     2.880000000
C    -4.023000000    -1.372000000     1.810000000
C    -4.180000000    -0.011000000     1.998000000
H    -3.918000000     0.529000000     2.904000000
C    -4.538000000     0.776000000     0.878000000
O    -4.391000000     2.166000000     1.042000000
C    -4.974000000     0.175000000    -0.318000000
C    -5.270000000     0.891000000    -1.555000000
H    -5.898000000     0.279000000    -2.207000000
C    -4.016000000     1.174000000    -2.340000000
C    -3.581000000     0.279000000    -3.300000000
H    -4.067000000    -0.687000000    -3.418000000
H    -5.754000000     1.855000000    -1.388000000
C    -4.854000000    -1.193000000    -0.390000000
H    -4.969000000    -1.659000000    -1.365000000
C    -4.320000000    -2.000000000     0.620000000
C    -4.139000000    -3.521000000     0.546000000
H    -4.987000000    -3.883000000    -0.039000000
H    -4.371000000    -3.988000000     1.505000000
C    -2.749000000    -3.902000000     0.147000000
C    -2.537000000    -4.309000000    -1.175000000
H    -3.396000000    -4.359000000    -1.839000000
C    -1.741000000    -3.995000000     1.131000000
C    -0.454000000    -4.309000000     0.753000000
H     0.314000000    -4.384000000     1.518000000
C    -0.234000000    -4.577000000    -0.596000000
O     1.064000000    -4.867000000    -0.974000000
C     1.680000000    -3.657000000    -1.462000000
C     2.972000000    -3.255000000    -0.737000000
C     3.751000000    -2.125000000    -1.079000000
H     3.416000000    -1.389000000    -1.806000000
C     3.463000000    -4.090000000     0.300000000
H     3.009000000    -4.969000000     0.751000000
O     1.847000000    -3.791000000    -2.935000000
H     1.081000000    -2.754000000    -1.272000000
C    -1.253000000    -4.573000000    -1.596000000
C    -0.935000000    -4.708000000    -3.057000000
H    -1.809000000    -5.076000000    -3.599000000
H    -0.214000000    -5.526000000    -3.120000000
C    -0.410000000    -3.410000000    -3.630000000
C    -1.371000000    -2.495000000    -4.153000000
H    -2.432000000    -2.669000000    -4.316000000
C     0.933000000    -3.087000000    -3.673000000
C     1.333000000    -1.812000000    -4.070000000
H     2.361000000    -1.465000000    -4.001000000
C     0.375000000    -0.927000000    -4.510000000
O     0.889000000     0.276000000    -4.827000000
C     0.508000000     1.380000000    -3.994000000
C     1.647000000     2.367000000    -3.989000000
C     2.919000000     1.907000000    -4.229000000
H     3.011000000     0.855000000    -4.486000000
C     1.390000000     3.725000000    -3.762000000
H     0.356000000     4.041000000    -3.654000000
O    -0.682000000     2.001000000    -4.509000000
H     0.339000000     1.034000000    -2.964000000
C    -0.987000000    -1.296000000    -4.687000000
C    -1.976000000    -0.354000000    -5.260000000
H    -2.741000000    -0.936000000    -5.778000000
H    -1.502000000     0.200000000    -6.073000000
C    -2.527000000     0.625000000    -4.243000000
C    -1.823000000     1.781000000    -3.958000000
C    -2.216000000     2.689000000    -2.898000000
H    -1.671000000     3.593000000    -2.640000000
C    -3.328000000     2.366000000    -2.147000000
O    -3.535000000     3.214000000    -1.031000000
C    -3.243000000     2.759000000     0.338000000
H    -2.590000000     1.884000000     0.205000000
C    -2.498000000     3.719000000     1.240000000
C    -2.413000000     3.506000000     2.627000000
H    -3.016000000     2.757000000     3.134000000
C    -1.752000000     4.685000000     0.631000000
H    -1.716000000     4.795000000    -0.450000000
C    -0.844000000     5.428000000     1.369000000
O    -0.062000000     6.407000000     0.777000000
C    -0.761000000     5.246000000     2.719000000
H    -0.060000000     5.885000000     3.250000000
C    -1.527000000     4.285000000     3.366000000
O    -1.286000000     4.116000000     4.775000000
C    -1.922000000     3.219000000     5.616000000
C    -1.321000000     1.994000000     5.887000000
H    -0.552000000     1.646000000     5.202000000
C    -3.022000000     3.684000000     6.334000000
H    -3.401000000     4.697000000     6.222000000
C    -3.551000000     2.873000000     7.385000000
H    -4.218000000     3.205000000     8.177000000
C    -3.107000000     1.569000000     7.501000000
H    -3.615000000     0.937000000     8.224000000
C    -1.919000000     1.153000000     6.861000000
O    -1.474000000    -0.129000000     7.100000000
C    -0.915000000    -0.930000000     6.128000000
C     0.361000000    -1.473000000     6.340000000
H     0.929000000    -1.221000000     7.232000000
C     0.762000000    -2.411000000     5.408000000
O     1.972000000    -3.009000000     5.690000000
C     2.552000000    -3.973000000     4.883000000
C     3.545000000    -3.689000000     3.943000000
H     3.872000000    -2.678000000     3.715000000
C     1.967000000    -5.226000000     4.918000000
H     1.182000000    -5.294000000     5.667000000
C     2.534000000    -6.309000000     4.105000000
H     2.404000000    -7.357000000     4.362000000
C     3.614000000    -5.995000000     3.314000000
H     4.093000000    -6.735000000     2.678000000
C     4.083000000    -4.638000000     3.168000000
O     5.014000000    -4.392000000     2.194000000
C     4.586000000    -3.734000000     1.046000000
C     5.267000000    -2.591000000     0.661000000
H     6.226000000    -2.375000000     1.125000000
C     4.909000000    -1.870000000    -0.425000000
O     5.608000000    -0.724000000    -0.619000000
C     5.922000000    -0.421000000    -1.924000000
C     5.438000000     0.791000000    -2.467000000
H     4.766000000     1.404000000    -1.872000000
C     6.629000000    -1.276000000    -2.745000000
H     6.990000000    -2.246000000    -2.412000000
C     6.954000000    -0.849000000    -4.040000000
H     7.620000000    -1.403000000    -4.697000000
C     6.614000000     0.407000000    -4.519000000
H     6.987000000     0.731000000    -5.487000000
C     5.757000000     1.188000000    -3.757000000
O     5.337000000     2.412000000    -4.126000000
C     4.010000000     2.720000000    -4.002000000
C     3.764000000     4.128000000    -3.687000000
H     4.678000000     4.690000000    -3.507000000
C     2.440000000     4.623000000    -3.605000000
O     2.290000000     5.968000000    -3.337000000
C     1.209000000     6.460000000    -2.592000000
C     0.208000000     7.149000000    -3.270000000
H     0.372000000     7.274000000    -4.337000000
C    -0.981000000     7.577000000    -2.583000000
H    -1.766000000     8.142000000    -3.079000000
C    -1.106000000     7.288000000    -1.187000000
H    -1.975000000     7.606000000    -0.615000000
C    -0.004000000     6.623000000    -0.535000000
C     1.175000000     6.209000000    -1.247000000
H     2.016000000     5.748000000    -0.734000000
C     1.754000000     0.039000000     1.890000000
H     2.326000000    -0.570000000     2.585000000
C     0.928000000    -0.677000000     1.022000000
H     0.931000000    -1.762000000     1.094000000
C     0.173000000     0.063000000     0.133000000
H    -0.478000000    -0.481000000    -0.556000000
C     0.181000000     1.460000000     0.060000000
H    -0.298000000     2.012000000    -0.744000000
C     1.048000000     2.204000000     0.960000000
H     1.125000000     3.282000000     0.850000000
C     1.801000000     1.490000000     1.874000000
C     2.797000000     2.231000000     2.723000000
O     3.043000000     3.398000000     2.472000000
O     3.356000000     1.632000000     3.591000000
O     4.882000000     4.095000000     4.508000000
H     5.168000000     3.476000000     5.180000000
H     4.394000000     3.559000000     3.882000000
O     4.757000000     6.650000000    -0.156000000
H     4.495000000     5.751000000     0.046000000
H     5.704000000     6.600000000    -0.282000000
O     0.628000000     5.420000000     8.212000000
H     1.429000000     5.740000000     8.625000000
H     0.920000000     5.046000000     7.381000000
O     3.003000000     6.325000000     2.615000000
H     3.265000000     5.424000000     2.805000000
H     2.872000000     6.342000000     1.667000000
O     6.200000000     6.548000000     3.886000000
H     5.672000000     5.853000000     4.279000000
H     7.103000000     6.243000000     3.979000000
O     7.155000000    -2.428000000     3.626000000
H     7.424000000    -2.962000000     2.879000000
H     6.634000000    -1.723000000     3.242000000
O     3.475000000     0.066000000     5.741000000
H     3.416000000     0.515000000     4.897000000
H     2.827000000    -0.636000000     5.685000000
O     5.736000000     0.240000000     7.420000000
H     5.352000000     0.046000000     8.275000000
H     4.983000000     0.374000000     6.845000000
O     7.821000000     2.860000000    -1.046000000
H     7.068000000     2.831000000    -0.456000000
H     8.573000000     2.670000000    -0.486000000
O     6.012000000     2.904000000     1.663000000
H     6.074000000     3.574000000     2.344000000
H     5.271000000     3.178000000     1.123000000
O     8.879000000     2.588000000     4.920000000
H     8.427000000     1.748000000     5.003000000
H     8.657000000     3.060000000     5.723000000
O     3.915000000     3.951000000     0.234000000
H     3.540000000     3.819000000     1.105000000
H     3.333000000     3.469000000    -0.353000000
O     8.755000000     2.387000000     1.284000000
H     7.820000000     2.312000000     1.473000000
H     8.998000000     3.252000000     1.613000000
O     2.250000000     1.993000000     8.057000000
H     2.867000000     1.905000000     7.331000000
H     2.403000000     2.874000000     8.397000000
O     4.887000000     5.706000000     7.337000000
H     5.400000000     4.918000000     7.518000000
H     4.519000000     5.556000000     6.466000000
O     6.042000000     3.025000000     6.712000000
H     6.931000000     3.373000000     6.783000000
H     6.009000000     2.320000000     7.358000000
O     2.282000000     4.855000000     6.016000000
H     1.874000000     5.533000000     5.476000000
H     2.568000000     4.190000000     5.390000000
O     5.666000000     0.489000000     2.935000000
H     4.776000000     0.644000000     3.252000000
H     5.950000000     1.338000000     2.594000000
O     3.455000000     8.962000000     3.739000000
H     4.253000000     9.477000000     3.621000000
H     3.692000000     8.083000000     3.443000000
