215
-1471.85145
C     0.278000000    -2.404000000     4.910000000
H     0.740000000    -3.116000000     4.231000000
C    -0.926000000    -1.864000000     4.547000000
C    -1.509000000    -0.793000000     5.282000000
H    -2.487000000    -0.421000000     4.988000000
C    -1.596000000    -2.299000000     3.252000000
O    -1.202000000    -3.658000000     2.953000000
H    -1.228000000    -1.697000000     2.407000000
O    -3.039000000    -2.252000000     3.311000000
C    -3.770000000    -1.680000000     2.253000000
C    -4.079000000    -0.362000000     2.119000000
H    -3.848000000     0.335000000     2.921000000
C    -4.689000000     0.137000000     0.960000000
O    -4.785000000     1.522000000     0.768000000
C    -4.853000000    -0.697000000    -0.122000000
C    -5.275000000    -0.158000000    -1.426000000
H    -6.013000000    -0.846000000    -1.842000000
C    -4.196000000     0.295000000    -2.344000000
C    -3.658000000    -0.626000000    -3.212000000
H    -4.054000000    -1.638000000    -3.177000000
H    -5.890000000     0.741000000    -1.347000000
C    -4.672000000    -2.062000000     0.025000000
H    -4.933000000    -2.737000000    -0.787000000
C    -3.987000000    -2.565000000     1.135000000
C    -3.598000000    -4.010000000     1.131000000
H    -4.341000000    -4.589000000     0.579000000
H    -3.720000000    -4.332000000     2.167000000
C    -2.155000000    -4.305000000     0.772000000
C    -1.824000000    -4.691000000    -0.490000000
H    -2.515000000    -4.818000000    -1.319000000
C    -1.104000000    -4.103000000     1.671000000
C     0.243000000    -4.391000000     1.356000000
H     1.057000000    -4.356000000     2.076000000
C     0.590000000    -4.783000000     0.108000000
O     1.903000000    -4.628000000    -0.205000000
C     2.296000000    -3.510000000    -1.001000000
C     3.569000000    -2.874000000    -0.475000000
C     4.348000000    -2.065000000    -1.246000000
H     4.179000000    -1.946000000    -2.313000000
C     3.911000000    -2.867000000     0.899000000
H     3.269000000    -3.423000000     1.577000000
O     2.237000000    -3.798000000    -2.419000000
H     1.510000000    -2.769000000    -0.790000000
C    -0.461000000    -4.858000000    -0.845000000
C    -0.201000000    -5.140000000    -2.314000000
H    -1.034000000    -5.748000000    -2.672000000
H     0.708000000    -5.738000000    -2.409000000
C     0.006000000    -3.896000000    -3.148000000
C    -1.051000000    -3.329000000    -3.873000000
H    -2.025000000    -3.779000000    -3.696000000
C     1.190000000    -3.176000000    -3.033000000
C     1.322000000    -1.976000000    -3.601000000
H     2.265000000    -1.436000000    -3.579000000
C     0.300000000    -1.410000000    -4.318000000
O     0.566000000    -0.185000000    -4.857000000
C     0.242000000     1.015000000    -4.051000000
C     1.326000000     2.113000000    -4.262000000
C     2.689000000     1.872000000    -4.411000000
H     2.943000000     0.840000000    -4.639000000
C     1.017000000     3.420000000    -3.789000000
H    -0.002000000     3.624000000    -3.468000000
O    -1.007000000     1.477000000    -4.664000000
H     0.218000000     0.791000000    -2.974000000
C    -0.944000000    -2.018000000    -4.434000000
C    -2.085000000    -1.254000000    -5.018000000
H    -2.893000000    -1.888000000    -5.390000000
H    -1.772000000    -0.769000000    -5.945000000
C    -2.617000000    -0.232000000    -4.007000000
C    -2.112000000     1.058000000    -3.938000000
C    -2.672000000     1.972000000    -3.128000000
H    -2.397000000     3.022000000    -3.065000000
C    -3.733000000     1.600000000    -2.279000000
O    -4.204000000     2.494000000    -1.344000000
C    -3.779000000     2.198000000     0.059000000
H    -2.915000000     1.519000000     0.011000000
C    -3.218000000     3.436000000     0.790000000
C    -2.881000000     3.371000000     2.133000000
H    -2.839000000     2.438000000     2.689000000
C    -2.876000000     4.533000000     0.009000000
H    -3.256000000     4.675000000    -1.000000000
C    -2.213000000     5.554000000     0.683000000
O    -1.940000000     6.675000000    -0.117000000
C    -1.938000000     5.566000000     2.061000000
H    -1.360000000     6.374000000     2.501000000
C    -2.220000000     4.426000000     2.762000000
O    -1.536000000     4.235000000     3.959000000
C    -2.100000000     3.542000000     5.020000000
C    -1.438000000     2.383000000     5.522000000
H    -0.528000000     1.951000000     5.115000000
C    -3.280000000     3.921000000     5.538000000
H    -3.761000000     4.869000000     5.311000000
C    -3.868000000     3.202000000     6.595000000
H    -4.831000000     3.562000000     6.949000000
C    -3.236000000     2.134000000     7.164000000
H    -3.660000000     1.626000000     8.026000000
C    -2.018000000     1.755000000     6.600000000
O    -1.338000000     0.710000000     7.165000000
C    -0.858000000    -0.342000000     6.460000000
C     0.308000000    -0.971000000     6.865000000
H     0.857000000    -0.691000000     7.761000000
C     0.912000000    -1.900000000     6.004000000
O     2.127000000    -2.453000000     6.378000000
C     3.037000000    -3.113000000     5.609000000
C     3.745000000    -2.418000000     4.648000000
H     3.596000000    -1.354000000     4.484000000
C     3.297000000    -4.461000000     5.762000000
H     2.844000000    -5.088000000     6.526000000
C     4.190000000    -5.124000000     4.935000000
H     4.372000000    -6.183000000     5.097000000
C     4.848000000    -4.469000000     3.930000000
H     5.621000000    -4.897000000     3.297000000
C     4.595000000    -3.091000000     3.830000000
O     5.240000000    -2.290000000     2.871000000
C     4.937000000    -2.197000000     1.527000000
C     5.783000000    -1.499000000     0.628000000
H     6.727000000    -1.117000000     1.009000000
C     5.479000000    -1.371000000    -0.735000000
O     6.466000000    -0.852000000    -1.517000000
C     6.235000000    -0.380000000    -2.816000000
C     5.693000000     0.909000000    -3.040000000
H     5.266000000     1.449000000    -2.198000000
C     6.768000000    -1.142000000    -3.869000000
H     7.303000000    -2.070000000    -3.683000000
C     6.583000000    -0.611000000    -5.130000000
H     6.870000000    -1.111000000    -6.052000000
C     6.072000000     0.630000000    -5.415000000
H     5.860000000     0.833000000    -6.461000000
C     5.513000000     1.348000000    -4.391000000
O     4.991000000     2.618000000    -4.557000000
C     3.657000000     2.900000000    -4.427000000
C     3.201000000     4.222000000    -4.197000000
H     3.821000000     5.112000000    -4.259000000
C     1.920000000     4.481000000    -3.761000000
O     1.582000000     5.711000000    -3.253000000
C     0.294000000     6.089000000    -2.954000000
C    -0.417000000     6.778000000    -3.941000000
H    -0.062000000     6.804000000    -4.968000000
C    -1.564000000     7.489000000    -3.617000000
H    -2.022000000     8.069000000    -4.414000000
C    -2.100000000     7.451000000    -2.281000000
H    -2.969000000     8.028000000    -1.975000000
C    -1.407000000     6.693000000    -1.395000000
C    -0.227000000     6.077000000    -1.676000000
H     0.321000000     5.488000000    -0.945000000
C     1.636000000     0.933000000     1.538000000
H     2.346000000     0.698000000     2.326000000
C     1.008000000    -0.140000000     0.925000000
H     1.124000000    -1.173000000     1.243000000
C     0.000000000     0.098000000     0.033000000
H    -0.459000000    -0.753000000    -0.456000000
C    -0.292000000     1.384000000    -0.379000000
H    -1.157000000     1.531000000    -1.022000000
C     0.327000000     2.477000000     0.231000000
H     0.028000000     3.496000000     0.000000000
C     1.316000000     2.251000000     1.176000000
C     1.968000000     3.408000000     1.887000000
O     2.288000000     4.434000000     1.259000000
O     2.185000000     3.270000000     3.097000000
O     4.754000000     1.634000000     0.686000000
H     5.083000000     0.938000000     0.118000000
H     4.441000000     2.308000000     0.082000000
O    -0.384000000     8.701000000     5.356000000
H    -0.360000000     7.746000000     5.423000000
H     0.509000000     8.947000000     5.115000000
O     4.892000000     2.347000000     3.162000000
H     5.206000000     2.122000000     2.286000000
H     4.001000000     2.669000000     3.021000000
O     4.842000000     9.381000000     0.060000000
H     5.536000000     8.791000000    -0.237000000
H     4.062000000     9.089000000    -0.411000000
O     3.684000000     0.839000000     7.525000000
H     3.071000000     1.144000000     6.856000000
H     3.135000000     0.651000000     8.286000000
O     4.231000000     6.348000000    -0.023000000
H     3.534000000     5.805000000     0.345000000
H     4.955000000     6.260000000     0.596000000
O     5.795000000     7.443000000     2.290000000
H     5.338000000     8.274000000     2.420000000
H     6.407000000     7.389000000     3.023000000
O     2.303000000     1.730000000     5.238000000
H     2.514000000     2.372000000     4.560000000
H     1.876000000     1.015000000     4.766000000
O     0.474000000     5.990000000     5.102000000
H     0.009000000     5.559000000     4.385000000
H    -0.200000000     6.151000000     5.762000000
O     5.837000000     5.048000000    -2.253000000
H     5.037000000     4.610000000    -1.963000000
H     5.964000000     5.758000000    -1.624000000
O     7.077000000     7.311000000     4.894000000
H     6.418000000     6.643000000     5.083000000
H     6.640000000     8.140000000     5.092000000
O     3.519000000     3.481000000    -1.101000000
H     3.134000000     3.731000000    -0.261000000
H     2.804000000     3.576000000    -1.730000000
O     2.293000000     8.676000000     5.176000000
H     2.576000000     9.518000000     4.820000000
H     2.538000000     8.037000000     4.506000000
O     1.603000000     4.086000000     6.737000000
H     2.124000000     3.650000000     6.063000000
H     1.175000000     4.808000000     6.279000000
O     2.822000000     7.834000000    -1.868000000
H     2.568000000     7.215000000    -2.552000000
H     3.210000000     7.288000000    -1.184000000
O     4.818000000     5.958000000     5.584000000
H     4.321000000     5.997000000     4.767000000
H     4.798000000     5.034000000     5.833000000
O     2.859000000     6.244000000     3.723000000
H     2.110000000     6.151000000     4.312000000
H     2.753000000     5.537000000     3.087000000
O     0.571000000     2.879000000     8.948000000
H     0.224000000     3.748000000     9.151000000
H     0.917000000     2.961000000     8.059000000
O     5.077000000     3.056000000     5.869000000
H     4.980000000     2.631000000     5.017000000
H     4.823000000     2.384000000     6.502000000
