215
-1444.76059
C     0.401000000    -1.296000000     4.424000000
H     0.837000000    -1.834000000     3.586000000
C    -0.955000000    -0.934000000     4.322000000
C    -1.365000000     0.115000000     5.137000000
H    -2.388000000     0.415000000     4.927000000
C    -1.840000000    -1.663000000     3.315000000
O    -1.680000000    -3.072000000     3.305000000
H    -1.448000000    -1.304000000     2.351000000
O    -3.207000000    -1.374000000     3.528000000
C    -3.862000000    -1.025000000     2.378000000
C    -3.981000000     0.331000000     2.155000000
H    -3.558000000     1.089000000     2.808000000
C    -4.392000000     0.856000000     0.955000000
O    -4.350000000     2.189000000     0.826000000
C    -4.858000000    -0.040000000    -0.060000000
C    -5.384000000     0.493000000    -1.402000000
H    -6.046000000    -0.197000000    -1.930000000
C    -4.295000000     0.713000000    -2.314000000
C    -3.912000000    -0.287000000    -3.225000000
H    -4.430000000    -1.242000000    -3.252000000
H    -5.744000000     1.518000000    -1.290000000
C    -4.675000000    -1.414000000     0.113000000
H    -4.887000000    -2.090000000    -0.711000000
C    -4.104000000    -1.885000000     1.313000000
C    -4.001000000    -3.346000000     1.475000000
H    -4.784000000    -3.904000000     0.957000000
H    -4.142000000    -3.555000000     2.537000000
C    -2.629000000    -3.776000000     1.147000000
C    -2.339000000    -4.421000000    -0.041000000
H    -3.176000000    -4.655000000    -0.693000000
C    -1.553000000    -3.708000000     2.090000000
C    -0.292000000    -4.105000000     1.763000000
H     0.570000000    -3.882000000     2.386000000
C    -0.012000000    -4.498000000     0.430000000
O     1.264000000    -4.728000000     0.023000000
C     1.881000000    -3.639000000    -0.692000000
C     3.253000000    -3.263000000    -0.268000000
C     4.084000000    -2.554000000    -1.068000000
H     3.778000000    -2.306000000    -2.082000000
C     3.679000000    -3.626000000     1.030000000
H     3.003000000    -4.188000000     1.670000000
O     1.877000000    -4.049000000    -2.097000000
H     1.223000000    -2.762000000    -0.602000000
C    -1.046000000    -4.712000000    -0.421000000
C    -0.890000000    -5.169000000    -1.863000000
H    -1.798000000    -5.688000000    -2.177000000
H    -0.166000000    -5.987000000    -1.872000000
C    -0.461000000    -4.099000000    -2.785000000
C    -1.459000000    -3.353000000    -3.402000000
H    -2.481000000    -3.713000000    -3.317000000
C     0.844000000    -3.651000000    -2.893000000
C     1.145000000    -2.629000000    -3.713000000
H     2.180000000    -2.296000000    -3.704000000
C     0.170000000    -1.916000000    -4.356000000
O     0.475000000    -0.744000000    -5.016000000
C     0.318000000     0.484000000    -4.191000000
C     1.562000000     1.350000000    -4.366000000
C     2.820000000     0.839000000    -4.788000000
H     2.829000000    -0.207000000    -5.083000000
C     1.424000000     2.689000000    -3.966000000
H     0.484000000     3.138000000    -3.656000000
O    -0.869000000     1.234000000    -4.599000000
H     0.289000000     0.133000000    -3.149000000
C    -1.194000000    -2.279000000    -4.306000000
C    -2.348000000    -1.351000000    -4.852000000
H    -3.274000000    -1.908000000    -5.013000000
H    -2.101000000    -0.963000000    -5.843000000
C    -2.734000000    -0.109000000    -4.006000000
C    -2.034000000     1.077000000    -3.939000000
C    -2.468000000     2.111000000    -3.144000000
H    -1.949000000     3.063000000    -3.066000000
C    -3.656000000     1.947000000    -2.353000000
O    -3.821000000     2.902000000    -1.378000000
C    -3.333000000     2.655000000    -0.007000000
H    -2.530000000     1.904000000    -0.052000000
C    -2.629000000     3.864000000     0.742000000
C    -2.916000000     4.278000000     2.046000000
H    -3.686000000     3.749000000     2.602000000
C    -1.730000000     4.618000000     0.058000000
H    -1.433000000     4.346000000    -0.952000000
C    -1.127000000     5.737000000     0.615000000
O    -0.158000000     6.499000000    -0.081000000
C    -1.315000000     6.023000000     1.973000000
H    -0.916000000     6.944000000     2.390000000
C    -2.221000000     5.281000000     2.724000000
O    -2.581000000     5.585000000     4.032000000
C    -2.707000000     4.568000000     5.008000000
C    -1.687000000     3.585000000     5.249000000
H    -0.834000000     3.438000000     4.591000000
C    -3.813000000     4.635000000     5.803000000
H    -4.599000000     5.317000000     5.489000000
C    -4.052000000     3.690000000     6.819000000
H    -4.968000000     3.723000000     7.403000000
C    -3.072000000     2.722000000     7.059000000
H    -3.105000000     1.910000000     7.781000000
C    -1.885000000     2.671000000     6.297000000
O    -0.891000000     1.769000000     6.735000000
C    -0.527000000     0.644000000     6.052000000
C     0.680000000     0.020000000     6.360000000
H     1.342000000     0.412000000     7.128000000
C     1.224000000    -0.911000000     5.532000000
O     2.543000000    -1.210000000     5.658000000
C     3.063000000    -2.429000000     5.281000000
C     3.988000000    -2.369000000     4.265000000
H     4.261000000    -1.418000000     3.816000000
C     2.859000000    -3.582000000     5.962000000
H     2.279000000    -3.605000000     6.881000000
C     3.534000000    -4.719000000     5.532000000
H     3.348000000    -5.680000000     6.005000000
C     4.327000000    -4.653000000     4.359000000
H     4.619000000    -5.612000000     3.939000000
C     4.616000000    -3.468000000     3.786000000
O     5.444000000    -3.562000000     2.706000000
C     5.010000000    -3.282000000     1.417000000
C     5.802000000    -2.626000000     0.519000000
H     6.769000000    -2.263000000     0.858000000
C     5.406000000    -2.288000000    -0.738000000
O     6.280000000    -1.504000000    -1.481000000
C     6.036000000    -1.329000000    -2.847000000
C     5.782000000     0.030000000    -3.324000000
H     5.805000000     0.853000000    -2.615000000
C     6.129000000    -2.380000000    -3.763000000
H     6.346000000    -3.333000000    -3.289000000
C     5.889000000    -2.180000000    -5.131000000
H     5.758000000    -2.998000000    -5.834000000
C     5.635000000    -0.882000000    -5.618000000
H     5.348000000    -0.790000000    -6.662000000
C     5.562000000     0.165000000    -4.706000000
O     5.195000000     1.408000000    -5.179000000
C     3.945000000     1.699000000    -4.707000000
C     3.747000000     3.063000000    -4.440000000
H     4.627000000     3.702000000    -4.461000000
C     2.493000000     3.559000000    -4.005000000
O     2.450000000     4.909000000    -3.686000000
C     1.287000000     5.545000000    -3.298000000
C     0.253000000     5.884000000    -4.249000000
H     0.287000000     5.720000000    -5.323000000
C    -0.950000000     6.426000000    -3.700000000
H    -1.862000000     6.584000000    -4.270000000
C    -1.011000000     6.732000000    -2.340000000
H    -1.936000000     7.193000000    -2.003000000
C     0.023000000     6.402000000    -1.461000000
C     1.165000000     5.764000000    -1.944000000
H     1.974000000     5.520000000    -1.261000000
C     1.601000000     0.309000000     1.787000000
H     2.219000000    -0.184000000     2.532000000
C     0.728000000    -0.422000000     0.986000000
H     0.707000000    -1.504000000     1.089000000
C    -0.037000000     0.227000000     0.065000000
H    -0.730000000    -0.361000000    -0.582000000
C     0.081000000     1.587000000    -0.181000000
H    -0.543000000     2.074000000    -0.926000000
C     0.893000000     2.360000000     0.612000000
H     1.047000000     3.423000000     0.447000000
C     1.707000000     1.714000000     1.602000000
C     2.545000000     2.507000000     2.507000000
O     2.750000000     3.709000000     2.186000000
O     3.331000000     1.883000000     3.180000000
O     7.611000000     1.802000000    -0.854000000
H     7.613000000     2.743000000    -1.027000000
H     6.688000000     1.552000000    -0.897000000
O     0.892000000     7.930000000     4.650000000
H     1.372000000     7.200000000     4.260000000
H     1.475000000     8.683000000     4.550000000
O     5.693000000     1.272000000     2.183000000
H     5.920000000     0.368000000     2.402000000
H     4.910000000     1.454000000     2.703000000
O     5.120000000     3.017000000     8.107000000
H     4.865000000     2.588000000     7.291000000
H     4.307000000     3.077000000     8.611000000
O     4.502000000     4.876000000     0.581000000
H     3.967000000     4.281000000     1.107000000
H     5.343000000     4.428000000     0.493000000
O     6.461000000     7.441000000     4.464000000
H     7.301000000     7.618000000     4.041000000
H     5.878000000     7.196000000     3.745000000
O     6.703000000    -1.065000000     5.485000000
H     6.172000000    -0.277000000     5.371000000
H     7.599000000    -0.777000000     5.310000000
O     4.667000000     1.369000000     5.700000000
H     4.496000000     1.738000000     4.834000000
H     3.828000000     0.998000000     5.973000000
O     2.434000000     6.748000000     6.518000000
H     2.401000000     5.806000000     6.349000000
H     1.654000000     7.095000000     6.086000000
O     5.252000000     6.987000000     2.167000000
H     5.273000000     6.186000000     1.643000000
H     4.941000000     7.661000000     1.563000000
O     8.678000000     2.841000000     4.864000000
H     8.144000000     3.424000000     5.403000000
H     8.404000000     3.026000000     3.966000000
O     4.913000000     1.901000000    -0.570000000
H     4.138000000     2.438000000    -0.740000000
H     4.951000000     1.832000000     0.384000000
O     5.170000000     6.553000000     6.937000000
H     5.513000000     6.659000000     6.050000000
H     4.244000000     6.783000000     6.865000000
O     4.365000000     6.037000000    -1.929000000
H     4.275000000     5.157000000    -2.294000000
H     4.176000000     5.930000000    -0.997000000
O     4.016000000     4.055000000     4.873000000
H     3.763000000     4.942000000     4.617000000
H     3.849000000     3.524000000     4.094000000
O     6.688000000     4.167000000     6.047000000
H     6.122000000     4.354000000     6.796000000
H     6.143000000     3.643000000     5.460000000
O     2.825000000     6.185000000     3.469000000
H     3.620000000     6.553000000     3.082000000
H     2.708000000     5.346000000     3.024000000
O     1.164000000     4.132000000     7.029000000
H     0.848000000     3.283000000     6.721000000
H     1.825000000     3.917000000     7.687000000
O     7.520000000     3.571000000     2.474000000
H     6.761000000     3.029000000     2.257000000
H     8.120000000     3.449000000     1.739000000
