215
-1469.29516
C     0.839000000    -2.124000000     4.879000000
H     1.136000000    -2.908000000     4.187000000
C    -0.456000000    -1.569000000     4.827000000
C    -0.635000000    -0.352000000     5.475000000
H    -1.604000000     0.098000000     5.276000000
C    -1.471000000    -2.000000000     3.689000000
O    -1.354000000    -3.413000000     3.369000000
H    -1.195000000    -1.415000000     2.799000000
O    -2.854000000    -1.659000000     3.937000000
C    -3.592000000    -1.334000000     2.778000000
C    -3.660000000     0.056000000     2.683000000
H    -3.208000000     0.734000000     3.402000000
C    -4.270000000     0.600000000     1.565000000
O    -4.306000000     1.985000000     1.357000000
C    -4.778000000    -0.266000000     0.542000000
C    -5.371000000     0.297000000    -0.696000000
H    -6.045000000    -0.381000000    -1.223000000
C    -4.322000000     0.619000000    -1.735000000
C    -3.968000000    -0.301000000    -2.738000000
H    -4.479000000    -1.252000000    -2.616000000
H    -5.970000000     1.177000000    -0.452000000
C    -4.556000000    -1.631000000     0.631000000
H    -4.907000000    -2.300000000    -0.151000000
C    -3.976000000    -2.212000000     1.751000000
C    -3.752000000    -3.688000000     1.821000000
H    -4.498000000    -4.267000000     1.273000000
H    -3.753000000    -4.124000000     2.823000000
C    -2.388000000    -3.960000000     1.269000000
C    -2.341000000    -4.464000000    -0.010000000
H    -3.236000000    -4.739000000    -0.563000000
C    -1.283000000    -3.807000000     2.099000000
C    -0.026000000    -4.024000000     1.535000000
H     0.878000000    -3.935000000     2.132000000
C     0.078000000    -4.532000000     0.231000000
O     1.347000000    -4.718000000    -0.273000000
C     1.919000000    -3.678000000    -1.183000000
C     3.338000000    -3.270000000    -0.851000000
C     4.127000000    -2.709000000    -1.854000000
H     3.739000000    -2.596000000    -2.863000000
C     3.879000000    -3.447000000     0.453000000
H     3.373000000    -3.991000000     1.246000000
O     1.640000000    -4.134000000    -2.569000000
H     1.319000000    -2.774000000    -0.997000000
C    -1.053000000    -4.688000000    -0.596000000
C    -0.975000000    -5.215000000    -2.005000000
H    -1.877000000    -5.806000000    -2.182000000
H    -0.152000000    -5.933000000    -2.029000000
C    -0.736000000    -4.031000000    -2.974000000
C    -1.780000000    -3.235000000    -3.452000000
H    -2.757000000    -3.604000000    -3.151000000
C     0.551000000    -3.609000000    -3.268000000
C     0.795000000    -2.460000000    -4.028000000
H     1.790000000    -2.124000000    -4.310000000
C    -0.254000000    -1.676000000    -4.430000000
O     0.043000000    -0.414000000    -5.044000000
C    -0.132000000     0.702000000    -4.125000000
C     0.983000000     1.689000000    -4.149000000
C     2.231000000     1.441000000    -4.654000000
H     2.443000000     0.474000000    -5.104000000
C     0.750000000     3.031000000    -3.745000000
H    -0.163000000     3.291000000    -3.216000000
O    -1.346000000     1.363000000    -4.447000000
H    -0.194000000     0.414000000    -3.065000000
C    -1.539000000    -2.083000000    -4.194000000
C    -2.785000000    -1.288000000    -4.675000000
H    -3.681000000    -1.837000000    -4.970000000
H    -2.536000000    -0.973000000    -5.690000000
C    -3.092000000    -0.143000000    -3.699000000
C    -2.430000000     1.102000000    -3.728000000
C    -2.772000000     2.113000000    -2.797000000
H    -2.242000000     3.062000000    -2.754000000
C    -3.743000000     1.875000000    -1.797000000
O    -3.951000000     2.868000000    -0.908000000
C    -3.395000000     2.602000000     0.432000000
H    -2.559000000     1.906000000     0.268000000
C    -2.835000000     3.808000000     1.044000000
C    -2.469000000     3.856000000     2.376000000
H    -2.569000000     2.966000000     2.992000000
C    -2.376000000     4.871000000     0.235000000
H    -2.535000000     4.883000000    -0.841000000
C    -1.774000000     5.999000000     0.745000000
O    -1.418000000     7.077000000    -0.066000000
C    -1.588000000     6.072000000     2.093000000
H    -1.086000000     6.886000000     2.610000000
C    -1.880000000     4.965000000     2.887000000
O    -1.522000000     5.038000000     4.273000000
C    -1.755000000     4.110000000     5.267000000
C    -0.766000000     3.167000000     5.461000000
H     0.109000000     3.123000000     4.818000000
C    -2.863000000     4.178000000     6.098000000
H    -3.596000000     4.960000000     5.916000000
C    -2.912000000     3.368000000     7.233000000
H    -3.641000000     3.567000000     8.014000000
C    -1.913000000     2.442000000     7.461000000
H    -1.863000000     1.870000000     8.384000000
C    -0.919000000     2.243000000     6.565000000
O     0.006000000     1.347000000     6.981000000
C     0.307000000     0.241000000     6.284000000
C     1.538000000    -0.422000000     6.525000000
H     2.282000000     0.009000000     7.190000000
C     1.842000000    -1.578000000     5.741000000
O     3.091000000    -2.080000000     5.845000000
C     3.556000000    -3.027000000     4.982000000
C     4.452000000    -2.587000000     3.975000000
H     4.666000000    -1.524000000     3.899000000
C     3.260000000    -4.362000000     5.171000000
H     2.660000000    -4.714000000     6.007000000
C     3.733000000    -5.325000000     4.262000000
H     3.558000000    -6.390000000     4.392000000
C     4.572000000    -4.926000000     3.191000000
H     5.011000000    -5.620000000     2.478000000
C     4.931000000    -3.580000000     3.045000000
O     5.756000000    -3.156000000     1.999000000
C     5.216000000    -3.052000000     0.660000000
C     5.941000000    -2.386000000    -0.274000000
H     6.941000000    -2.063000000     0.004000000
C     5.421000000    -2.231000000    -1.555000000
O     6.309000000    -1.640000000    -2.443000000
C     5.900000000    -1.144000000    -3.640000000
C     5.392000000     0.121000000    -3.783000000
H     5.357000000     0.759000000    -2.903000000
C     5.900000000    -1.943000000    -4.748000000
H     6.127000000    -3.006000000    -4.753000000
C     5.500000000    -1.486000000    -5.962000000
H     5.576000000    -2.194000000    -6.784000000
C     5.065000000    -0.162000000    -6.160000000
H     4.729000000     0.211000000    -7.124000000
C     4.909000000     0.629000000    -5.005000000
O     4.532000000     2.030000000    -5.076000000
C     3.315000000     2.423000000    -4.631000000
C     3.086000000     3.690000000    -4.138000000
H     3.855000000     4.457000000    -4.127000000
C     1.750000000     4.003000000    -3.807000000
O     1.557000000     5.327000000    -3.373000000
C     0.351000000     5.936000000    -3.110000000
C    -0.398000000     6.726000000    -4.065000000
H    -0.173000000     6.645000000    -5.125000000
C    -1.428000000     7.525000000    -3.686000000
H    -1.964000000     8.036000000    -4.481000000
C    -1.802000000     7.622000000    -2.287000000
H    -2.601000000     8.172000000    -1.797000000
C    -1.063000000     6.871000000    -1.356000000
C     0.050000000     6.161000000    -1.736000000
H     0.745000000     5.811000000    -0.977000000
C     1.734000000    -0.028000000     2.145000000
H     2.184000000    -0.679000000     2.890000000
C     0.870000000    -0.537000000     1.216000000
H     0.698000000    -1.610000000     1.224000000
C     0.087000000     0.279000000     0.360000000
H    -0.632000000    -0.178000000    -0.345000000
C     0.313000000     1.636000000     0.381000000
H    -0.240000000     2.307000000    -0.272000000
C     1.217000000     2.123000000     1.296000000
H     1.439000000     3.187000000     1.274000000
C     1.888000000     1.373000000     2.246000000
C     2.840000000     1.989000000     3.274000000
O     2.690000000     3.166000000     3.531000000
O     3.762000000     1.334000000     3.728000000
O     3.820000000     2.967000000    -0.812000000
H     4.537000000     3.062000000    -1.439000000
H     3.600000000     2.036000000    -0.838000000
O     2.471000000     6.165000000     7.142000000
H     3.256000000     6.679000000     6.953000000
H     2.582000000     5.363000000     6.631000000
O     5.380000000     1.186000000     1.437000000
H     4.772000000     1.139000000     0.699000000
H     4.822000000     1.127000000     2.212000000
O     3.770000000     4.521000000     1.353000000
H     3.214000000     4.085000000     1.999000000
H     3.791000000     3.918000000     0.610000000
O    -0.181000000     7.607000000     5.095000000
H     0.143000000     6.747000000     4.827000000
H     0.556000000     8.198000000     4.945000000
O     4.994000000     1.328000000     6.217000000
H     4.419000000     1.351000000     5.451000000
H     5.878000000     1.300000000     5.852000000
O     5.136000000    -1.648000000     7.600000000
H     4.604000000    -1.139000000     8.212000000
H     5.116000000    -1.143000000     6.788000000
O     4.092000000     3.778000000     7.206000000
H     4.273000000     2.885000000     6.913000000
H     4.206000000     3.747000000     8.156000000
O     4.079000000     7.487000000     4.796000000
H     4.376000000     6.621000000     4.515000000
H     3.710000000     7.881000000     4.005000000
O     7.376000000     0.760000000     4.042000000
H     7.881000000     1.523000000     4.324000000
H     6.749000000     1.109000000     3.409000000
O    -0.090000000     5.917000000     7.427000000
H    -0.331000000     6.434000000     6.659000000
H     0.861000000     6.013000000     7.491000000
O     5.622000000     7.128000000     1.494000000
H     4.975000000     6.474000000     1.228000000
H     5.200000000     7.968000000     1.316000000
O     3.325000000     0.475000000    -0.509000000
H     3.943000000    -0.254000000    -0.550000000
H     2.575000000     0.127000000    -0.027000000
O     7.467000000     3.220000000     5.783000000
H     7.012000000     3.600000000     5.032000000
H     7.452000000     3.910000000     6.447000000
O     4.411000000     4.841000000     4.870000000
H     4.488000000     4.420000000     5.726000000
H     3.877000000     4.238000000     4.353000000
O     7.802000000     0.927000000     0.013000000
H     8.215000000     1.790000000    -0.001000000
H     6.988000000     1.058000000     0.499000000
O     9.098000000     4.816000000     2.114000000
H     8.892000000     5.743000000     2.230000000
H     8.252000000     4.373000000     2.177000000
O     1.377000000     5.469000000     4.164000000
H     2.320000000     5.606000000     4.252000000
H     1.298000000     4.640000000     3.692000000
O     6.502000000     3.453000000     2.387000000
H     6.145000000     2.611000000     2.106000000
H     5.769000000     4.063000000     2.306000000
