215
-1459.70384
C    -0.630000000    -3.342000000     2.873000000
H    -0.355000000    -3.773000000     1.913000000
C    -1.948000000    -2.919000000     3.007000000
C    -2.379000000    -2.466000000     4.236000000
H    -3.420000000    -2.236000000     4.447000000
C    -2.767000000    -2.748000000     1.733000000
O    -2.861000000    -3.974000000     0.889000000
H    -2.344000000    -1.887000000     1.195000000
O    -4.153000000    -2.330000000     1.959000000
C    -4.518000000    -1.282000000     1.190000000
C    -4.427000000    -0.061000000     1.745000000
H    -4.092000000    -0.026000000     2.779000000
C    -4.644000000     1.024000000     1.012000000
O    -4.190000000     2.212000000     1.613000000
C    -4.924000000     1.015000000    -0.311000000
C    -4.966000000     2.331000000    -1.094000000
H    -5.663000000     2.243000000    -1.930000000
C    -3.572000000     2.714000000    -1.663000000
C    -3.175000000     2.304000000    -2.919000000
H    -3.806000000     1.722000000    -3.586000000
H    -5.411000000     3.067000000    -0.422000000
C    -4.903000000    -0.209000000    -0.939000000
H    -4.918000000    -0.234000000    -2.026000000
C    -4.711000000    -1.381000000    -0.186000000
C    -4.925000000    -2.728000000    -0.803000000
H    -5.611000000    -2.622000000    -1.646000000
H    -5.423000000    -3.409000000    -0.110000000
C    -3.595000000    -3.320000000    -1.329000000
C    -3.312000000    -3.164000000    -2.691000000
H    -3.931000000    -2.645000000    -3.419000000
C    -2.606000000    -3.905000000    -0.493000000
C    -1.407000000    -4.326000000    -1.048000000
H    -0.643000000    -4.796000000    -0.434000000
C    -1.140000000    -4.091000000    -2.342000000
O     0.181000000    -4.368000000    -2.751000000
C     1.197000000    -3.264000000    -2.806000000
C     2.599000000    -3.602000000    -2.224000000
C     3.688000000    -2.834000000    -2.398000000
H     3.512000000    -1.888000000    -2.903000000
C     2.682000000    -4.581000000    -1.254000000
H     1.792000000    -5.151000000    -1.000000000
O     1.321000000    -2.846000000    -4.206000000
H     0.779000000    -2.451000000    -2.194000000
C    -2.003000000    -3.394000000    -3.166000000
C    -1.651000000    -2.925000000    -4.569000000
H    -2.544000000    -2.747000000    -5.171000000
H    -1.132000000    -3.740000000    -5.077000000
C    -0.762000000    -1.620000000    -4.523000000
C    -1.399000000    -0.361000000    -4.660000000
H    -2.472000000    -0.377000000    -4.832000000
C     0.642000000    -1.635000000    -4.376000000
C     1.359000000    -0.421000000    -4.456000000
H     2.440000000    -0.457000000    -4.346000000
C     0.644000000     0.766000000    -4.456000000
O     1.366000000     1.977000000    -4.281000000
C     1.182000000     2.602000000    -2.950000000
C     2.551000000     3.131000000    -2.492000000
C     3.752000000     2.615000000    -2.904000000
H     3.844000000     1.751000000    -3.557000000
C     2.621000000     4.243000000    -1.600000000
H     1.707000000     4.628000000    -1.154000000
O     0.269000000     3.684000000    -3.100000000
H     0.793000000     1.862000000    -2.235000000
C    -0.759000000     0.818000000    -4.613000000
C    -1.585000000     2.104000000    -4.813000000
H    -2.524000000     1.845000000    -5.307000000
H    -1.134000000     2.843000000    -5.479000000
C    -1.957000000     2.677000000    -3.473000000
C    -1.065000000     3.472000000    -2.706000000
C    -1.477000000     3.866000000    -1.475000000
H    -0.709000000     4.293000000    -0.835000000
C    -2.683000000     3.484000000    -0.913000000
O    -3.025000000     3.783000000     0.414000000
C    -2.848000000     2.717000000     1.381000000
H    -2.229000000     1.888000000     1.008000000
C    -2.068000000     3.252000000     2.526000000
C    -2.334000000     2.841000000     3.830000000
H    -3.212000000     2.214000000     3.962000000
C    -0.900000000     4.056000000     2.238000000
H    -0.687000000     4.404000000     1.231000000
C    -0.094000000     4.423000000     3.325000000
O     0.992000000     5.274000000     3.246000000
C    -0.385000000     4.036000000     4.651000000
H     0.271000000     4.334000000     5.465000000
C    -1.509000000     3.264000000     4.917000000
O    -1.764000000     2.815000000     6.219000000
C    -2.378000000     1.616000000     6.540000000
C    -1.791000000     0.319000000     6.443000000
H    -0.808000000     0.223000000     5.988000000
C    -3.604000000     1.736000000     7.134000000
H    -4.043000000     2.729000000     7.192000000
C    -4.321000000     0.610000000     7.469000000
H    -5.287000000     0.727000000     7.954000000
C    -3.810000000    -0.680000000     7.300000000
H    -4.277000000    -1.617000000     7.592000000
C    -2.485000000    -0.808000000     6.815000000
O    -1.874000000    -2.079000000     6.547000000
C    -1.500000000    -2.463000000     5.300000000
C    -0.229000000    -2.938000000     5.219000000
H     0.375000000    -2.989000000     6.122000000
C     0.200000000    -3.395000000     3.991000000
O     1.476000000    -3.921000000     3.860000000
C     1.704000000    -5.025000000     3.045000000
C     2.520000000    -4.865000000     1.927000000
H     2.910000000    -3.879000000     1.687000000
C     1.347000000    -6.283000000     3.509000000
H     0.831000000    -6.372000000     4.461000000
C     1.825000000    -7.418000000     2.843000000
H     1.586000000    -8.419000000     3.191000000
C     2.613000000    -7.277000000     1.710000000
H     3.023000000    -8.129000000     1.174000000
C     2.991000000    -6.030000000     1.319000000
O     3.933000000    -5.867000000     0.345000000
C     3.870000000    -4.869000000    -0.610000000
C     4.992000000    -4.122000000    -0.889000000
H     5.947000000    -4.297000000    -0.401000000
C     4.920000000    -3.081000000    -1.797000000
O     6.004000000    -2.190000000    -1.918000000
C     6.210000000    -1.186000000    -2.837000000
C     6.150000000     0.167000000    -2.453000000
H     5.898000000     0.420000000    -1.427000000
C     6.473000000    -1.478000000    -4.224000000
H     6.552000000    -2.517000000    -4.532000000
C     6.581000000    -0.360000000    -5.149000000
H     6.774000000    -0.529000000    -6.205000000
C     6.449000000     0.958000000    -4.724000000
H     6.382000000     1.825000000    -5.376000000
C     6.283000000     1.202000000    -3.358000000
O     6.201000000     2.504000000    -2.872000000
C     5.008000000     3.113000000    -2.534000000
C     5.039000000     4.189000000    -1.669000000
H     5.913000000     4.748000000    -1.343000000
C     3.850000000     4.815000000    -1.239000000
O     3.970000000     5.923000000    -0.394000000
C     2.891000000     6.382000000     0.347000000
C     2.165000000     7.498000000    -0.080000000
H     2.520000000     7.973000000    -0.991000000
C     0.908000000     7.820000000     0.501000000
H     0.324000000     8.573000000    -0.022000000
C     0.503000000     7.125000000     1.655000000
H    -0.526000000     7.199000000     1.998000000
C     1.324000000     6.093000000     2.134000000
C     2.516000000     5.717000000     1.533000000
H     3.138000000     4.874000000     1.821000000
C     2.551000000    -0.585000000     0.062000000
H     3.453000000    -0.886000000    -0.466000000
C     1.410000000    -0.307000000    -0.704000000
H     1.526000000    -0.378000000    -1.783000000
C     0.170000000    -0.154000000    -0.090000000
H    -0.828000000    -0.103000000    -0.581000000
C     0.027000000    -0.051000000     1.322000000
H    -0.941000000     0.189000000     1.754000000
C     1.154000000    -0.415000000     2.075000000
H     1.027000000    -0.467000000     3.154000000
C     2.422000000    -0.604000000     1.481000000
C     3.573000000    -0.817000000     2.366000000
O     3.449000000    -0.594000000     3.574000000
O     4.605000000    -1.187000000     1.922000000
O     9.580000000    -2.189000000     2.222000000
H     9.945000000    -1.393000000     1.836000000
H     8.633000000    -2.047000000     2.211000000
O     1.798000000     0.843000000     5.219000000
H     2.252000000     1.681000000     5.312000000
H     2.219000000     0.425000000     4.468000000
O     4.391000000    -4.152000000     5.071000000
H     4.404000000    -5.065000000     5.357000000
H     3.592000000    -4.075000000     4.550000000
O     6.204000000     4.524000000     2.803000000
H     5.816000000     4.414000000     3.672000000
H     5.819000000     3.821000000     2.279000000
O     6.007000000    -6.895000000     2.187000000
H     5.176000000    -6.429000000     2.094000000
H     6.637000000    -6.362000000     1.702000000
O     3.165000000     3.140000000     6.038000000
H     4.019000000     2.712000000     6.088000000
H     3.318000000     3.918000000     5.502000000
O     5.397000000     1.587000000     6.820000000
H     5.879000000     1.946000000     7.566000000
H     5.510000000     0.639000000     6.897000000
O     3.450000000    -1.945000000     5.858000000
H     3.894000000    -2.753000000     5.601000000
H     3.622000000    -1.337000000     5.139000000
O     6.730000000    -3.462000000     6.566000000
H     7.467000000    -3.501000000     5.957000000
H     6.045000000    -3.982000000     6.147000000
O     7.006000000    -0.559000000     2.010000000
H     6.235000000    -1.122000000     1.947000000
H     7.141000000    -0.441000000     2.951000000
O     6.641000000     3.981000000     6.110000000
H     7.579000000     3.976000000     6.300000000
H     6.392000000     3.056000000     6.111000000
O     1.242000000    -1.017000000     7.249000000
H     2.052000000    -1.322000000     6.840000000
H     1.094000000    -0.151000000     6.870000000
O     5.989000000    -3.436000000     2.382000000
H     5.550000000    -2.616000000     2.156000000
H     5.451000000    -3.811000000     3.079000000
O     9.979000000    -0.065000000     0.707000000
H     9.056000000     0.003000000     0.952000000
H     9.988000000     0.096000000    -0.237000000
O     8.979000000    -3.910000000     5.225000000
H     8.809000000    -4.162000000     4.318000000
H     9.344000000    -4.698000000     5.628000000
O     5.121000000     1.959000000     2.562000000
H     5.309000000     1.297000000     1.896000000
H     4.660000000     1.481000000     3.251000000
O     8.376000000    -4.651000000     2.533000000
H     9.016000000    -3.962000000     2.349000000
H     7.527000000    -4.217000000     2.450000000
O     6.583000000    -0.392000000     4.674000000
H     5.999000000    -1.029000000     5.085000000
H     5.996000000     0.226000000     4.240000000
O     9.186000000    -0.840000000     6.518000000
H     9.283000000    -1.792000000     6.558000000
H     8.436000000    -0.700000000     5.940000000
