215
-1424.79102
C    -4.920000000     1.662000000    -2.053000000
H    -4.629000000     2.529000000    -2.642000000
C    -4.402000000     1.574000000    -0.693000000
C    -4.941000000     0.529000000     0.107000000
H    -4.595000000     0.414000000     1.131000000
C    -3.487000000     2.543000000    -0.055000000
O    -3.311000000     3.750000000    -0.889000000
H    -2.508000000     2.054000000     0.056000000
O    -3.856000000     2.878000000     1.276000000
C    -2.864000000     2.804000000     2.252000000
C    -2.623000000     1.705000000     3.030000000
H    -3.373000000     0.920000000     2.971000000
C    -1.637000000     1.606000000     3.940000000
O    -1.486000000     0.393000000     4.551000000
C    -0.746000000     2.604000000     4.080000000
C     0.420000000     2.521000000     5.085000000
H     0.703000000     3.550000000     5.318000000
C     1.641000000     1.867000000     4.555000000
C     2.585000000     2.572000000     3.770000000
H     2.424000000     3.624000000     3.549000000
H     0.202000000     2.145000000     6.087000000
C    -0.824000000     3.766000000     3.238000000
H    -0.080000000     4.557000000     3.294000000
C    -1.877000000     3.895000000     2.315000000
C    -1.891000000     5.144000000     1.388000000
H    -1.368000000     5.982000000     1.851000000
H    -2.930000000     5.444000000     1.234000000
C    -1.358000000     4.801000000     0.037000000
C    -0.030000000     5.057000000    -0.141000000
H     0.510000000     5.626000000     0.611000000
C    -2.095000000     4.210000000    -0.980000000
C    -1.455000000     3.842000000    -2.165000000
H    -1.956000000     3.299000000    -2.963000000
C    -0.105000000     4.045000000    -2.287000000
O     0.421000000     3.584000000    -3.487000000
C     1.144000000     2.272000000    -3.310000000
C     0.823000000     1.167000000    -4.344000000
C     1.595000000     0.022000000    -4.513000000
H     2.425000000    -0.114000000    -3.825000000
C    -0.314000000     1.338000000    -5.144000000
H    -0.903000000     2.248000000    -5.063000000
O     2.577000000     2.647000000    -3.211000000
H     0.750000000     1.991000000    -2.322000000
C     0.620000000     4.696000000    -1.316000000
C     2.126000000     5.001000000    -1.589000000
H     2.536000000     5.881000000    -1.091000000
H     2.172000000     5.209000000    -2.660000000
C     2.952000000     3.798000000    -1.155000000
C     3.443000000     3.753000000     0.174000000
H     3.331000000     4.637000000     0.796000000
C     3.170000000     2.723000000    -1.972000000
C     3.910000000     1.659000000    -1.506000000
H     4.087000000     0.838000000    -2.197000000
C     4.407000000     1.599000000    -0.196000000
O     4.965000000     0.400000000     0.275000000
C     4.129000000    -0.521000000     0.905000000
C     4.307000000    -1.941000000     0.393000000
C     4.945000000    -2.153000000    -0.890000000
H     5.379000000    -1.292000000    -1.392000000
C     3.836000000    -3.060000000     1.031000000
H     3.277000000    -2.835000000     1.935000000
O     4.313000000    -0.429000000     2.293000000
H     3.072000000    -0.276000000     0.729000000
C     4.165000000     2.664000000     0.658000000
C     4.507000000     2.615000000     2.126000000
H     4.427000000     3.636000000     2.504000000
H     5.512000000     2.189000000     2.175000000
C     3.518000000     1.860000000     2.981000000
C     3.538000000     0.427000000     3.043000000
C     2.710000000    -0.241000000     3.928000000
H     2.756000000    -1.326000000     3.988000000
C     1.692000000     0.460000000     4.563000000
O     0.751000000    -0.263000000     5.138000000
C    -0.382000000    -0.553000000     4.267000000
H    -0.155000000    -0.360000000     3.208000000
C    -0.892000000    -1.978000000     4.400000000
C    -2.247000000    -2.204000000     4.032000000
H    -2.866000000    -1.398000000     3.647000000
C    -0.035000000    -3.049000000     4.536000000
H     1.017000000    -2.810000000     4.402000000
C    -0.557000000    -4.345000000     4.505000000
O     0.236000000    -5.458000000     4.788000000
C    -1.927000000    -4.601000000     4.333000000
H    -2.373000000    -5.585000000     4.212000000
C    -2.743000000    -3.508000000     4.123000000
O    -4.087000000    -3.810000000     3.952000000
C    -4.998000000    -2.853000000     3.564000000
C    -5.257000000    -2.685000000     2.165000000
H    -4.818000000    -3.388000000     1.461000000
C    -5.636000000    -2.109000000     4.483000000
H    -5.480000000    -2.331000000     5.536000000
C    -6.528000000    -1.140000000     4.072000000
H    -6.967000000    -0.382000000     4.716000000
C    -6.724000000    -0.882000000     2.707000000
H    -7.291000000    -0.060000000     2.278000000
C    -6.059000000    -1.680000000     1.740000000
O    -6.391000000    -1.498000000     0.404000000
C    -5.808000000    -0.497000000    -0.334000000
C    -6.147000000    -0.422000000    -1.714000000
H    -6.783000000    -1.223000000    -2.082000000
C    -5.663000000     0.541000000    -2.597000000
O    -5.912000000     0.522000000    -3.981000000
C    -5.078000000     1.039000000    -4.930000000
C    -3.847000000     0.377000000    -5.121000000
H    -3.537000000    -0.423000000    -4.453000000
C    -5.661000000     1.940000000    -5.801000000
H    -6.710000000     2.200000000    -5.685000000
C    -4.890000000     2.337000000    -6.931000000
H    -5.232000000     3.176000000    -7.531000000
C    -3.694000000     1.758000000    -7.125000000
H    -3.157000000     1.985000000    -8.042000000
C    -3.198000000     0.832000000    -6.247000000
O    -1.992000000     0.255000000    -6.633000000
C    -0.884000000     0.205000000    -5.855000000
C    -0.130000000    -0.953000000    -5.914000000
H    -0.430000000    -1.836000000    -6.473000000
C     1.073000000    -1.044000000    -5.214000000
O     1.773000000    -2.205000000    -5.224000000
C     3.157000000    -2.342000000    -5.129000000
C     3.730000000    -2.902000000    -4.009000000
H     2.977000000    -2.962000000    -3.228000000
C     4.008000000    -2.040000000    -6.171000000
H     3.588000000    -1.697000000    -7.113000000
C     5.380000000    -2.368000000    -6.131000000
H     5.925000000    -2.128000000    -7.040000000
C     5.899000000    -2.999000000    -4.967000000
H     6.932000000    -3.338000000    -4.989000000
C     5.077000000    -3.290000000    -3.869000000
O     5.659000000    -3.679000000    -2.655000000
C     5.003000000    -3.435000000    -1.433000000
C     4.517000000    -4.572000000    -0.765000000
H     4.600000000    -5.546000000    -1.242000000
C     3.881000000    -4.336000000     0.469000000
O     3.112000000    -5.373000000     1.021000000
C     2.930000000    -5.346000000     2.326000000
C     4.019000000    -5.654000000     3.128000000
H     5.039000000    -5.826000000     2.792000000
C     3.876000000    -5.789000000     4.534000000
H     4.739000000    -5.829000000     5.194000000
C     2.552000000    -5.713000000     5.013000000
H     2.317000000    -5.793000000     6.071000000
C     1.466000000    -5.471000000     4.215000000
C     1.640000000    -5.259000000     2.868000000
H     0.833000000    -5.028000000     2.178000000
C    -1.451000000    -2.604000000    -2.866000000
H    -2.103000000    -2.567000000    -3.735000000
C    -1.473000000    -1.547000000    -1.892000000
H    -2.136000000    -0.700000000    -2.051000000
C    -0.668000000    -1.564000000    -0.771000000
H    -0.786000000    -0.806000000     0.002000000
C     0.313000000    -2.575000000    -0.638000000
H     0.959000000    -2.714000000     0.224000000
C     0.340000000    -3.590000000    -1.630000000
H     1.135000000    -4.320000000    -1.501000000
C    -0.500000000    -3.631000000    -2.755000000
C    -0.386000000    -4.734000000    -3.847000000
O     0.325000000    -5.707000000    -3.628000000
O    -1.121000000    -4.701000000    -4.788000000
O    -0.198000000    -6.500000000    -6.573000000
H    -0.311000000    -5.816000000    -5.913000000
H    -1.085000000    -6.819000000    -6.741000000
O    -4.225000000    -8.225000000    -2.737000000
H    -3.308000000    -7.967000000    -2.641000000
H    -4.704000000    -7.398000000    -2.776000000
O     1.317000000    -9.420000000    -4.581000000
H     1.433000000    -8.782000000    -3.877000000
H     1.469000000    -8.922000000    -5.384000000
O    -4.654000000    -3.182000000    -4.429000000
H    -4.141000000    -3.964000000    -4.631000000
H    -4.726000000    -3.182000000    -3.475000000
O     2.717000000    -6.367000000    -5.028000000
H     2.809000000    -5.952000000    -5.886000000
H     1.913000000    -5.995000000    -4.666000000
O     0.604000000    -8.734000000    -7.903000000
H     0.153000000    -8.059000000    -7.396000000
H     0.703000000    -8.351000000    -8.775000000
O    -2.029000000    -4.169000000    -7.252000000
H    -2.685000000    -4.840000000    -7.439000000
H    -1.785000000    -4.320000000    -6.339000000
O    -3.524000000    -2.022000000    -8.251000000
H    -4.390000000    -2.139000000    -7.859000000
H    -2.955000000    -2.609000000    -7.754000000
O     2.974000000    -5.320000000    -7.660000000
H     3.337000000    -4.527000000    -8.056000000
H     3.062000000    -5.988000000    -8.340000000
O    -0.185000000    -5.167000000    -9.020000000
H    -0.926000000    -4.720000000    -8.610000000
H     0.099000000    -5.807000000    -8.367000000
O    -2.838000000    -7.139000000    -6.819000000
H    -2.778000000    -7.731000000    -7.569000000
H    -3.493000000    -6.491000000    -7.078000000
O    -1.297000000    -6.033000000     0.108000000
H    -2.231000000    -5.839000000     0.022000000
H    -0.882000000    -5.528000000    -0.591000000
O    -4.152000000    -3.212000000    -1.690000000
H    -3.223000000    -2.985000000    -1.652000000
H    -4.217000000    -4.035000000    -1.204000000
O    -1.367000000    -7.683000000    -2.839000000
H    -0.860000000    -6.936000000    -3.155000000
H    -1.094000000    -8.412000000    -3.397000000
O     4.454000000    -7.751000000    -3.771000000
H     4.940000000    -8.382000000    -4.301000000
H     3.928000000    -7.262000000    -4.404000000
O     2.078000000    -7.463000000    -2.378000000
H     1.637000000    -6.689000000    -2.727000000
H     2.933000000    -7.466000000    -2.809000000
O    -3.510000000    -9.608000000    -5.165000000
H    -3.873000000    -9.199000000    -4.379000000
H    -2.884000000    -8.966000000    -5.501000000
O    -3.453000000    -5.752000000    -4.477000000
H    -2.622000000    -5.308000000    -4.645000000
H    -3.417000000    -6.539000000    -5.020000000
O     0.186000000    -9.292000000    -1.117000000
H     1.038000000    -8.974000000    -1.413000000
H    -0.441000000    -8.900000000    -1.725000000
