215
-1459.42355
C    -0.013000000    -3.506000000     3.598000000
H     0.138000000    -4.212000000     2.785000000
C    -1.149000000    -2.735000000     3.595000000
C    -1.312000000    -1.700000000     4.514000000
H    -2.129000000    -0.995000000     4.641000000
C    -2.105000000    -2.785000000     2.397000000
O    -2.138000000    -4.057000000     1.743000000
H    -1.710000000    -2.037000000     1.695000000
O    -3.475000000    -2.453000000     2.763000000
C    -4.094000000    -1.564000000     1.966000000
C    -4.014000000    -0.210000000     2.305000000
H    -3.612000000     0.060000000     3.278000000
C    -4.475000000     0.809000000     1.485000000
O    -3.996000000     2.078000000     1.878000000
C    -4.872000000     0.494000000     0.165000000
C    -5.217000000     1.608000000    -0.726000000
H    -6.016000000     1.304000000    -1.406000000
C    -4.095000000     2.035000000    -1.576000000
C    -3.912000000     1.449000000    -2.835000000
H    -4.590000000     0.637000000    -3.085000000
H    -5.663000000     2.380000000    -0.095000000
C    -4.927000000    -0.825000000    -0.249000000
H    -5.351000000    -1.087000000    -1.215000000
C    -4.525000000    -1.858000000     0.640000000
C    -4.459000000    -3.330000000     0.110000000
H    -5.254000000    -3.380000000    -0.637000000
H    -4.762000000    -3.964000000     0.945000000
C    -3.097000000    -3.763000000    -0.469000000
C    -2.973000000    -3.665000000    -1.846000000
H    -3.783000000    -3.312000000    -2.479000000
C    -2.067000000    -4.134000000     0.404000000
C    -0.859000000    -4.452000000    -0.243000000
H     0.015000000    -4.695000000     0.356000000
C    -0.684000000    -4.358000000    -1.620000000
O     0.680000000    -4.516000000    -1.923000000
C     1.375000000    -3.325000000    -2.208000000
C     2.814000000    -3.357000000    -1.692000000
C     3.847000000    -2.608000000    -2.244000000
H     3.666000000    -1.826000000    -2.976000000
C     3.108000000    -4.387000000    -0.791000000
H     2.416000000    -5.183000000    -0.529000000
O     1.387000000    -3.039000000    -3.688000000
H     0.895000000    -2.456000000    -1.734000000
C    -1.781000000    -4.028000000    -2.442000000
C    -1.513000000    -3.775000000    -3.879000000
H    -2.456000000    -3.862000000    -4.423000000
H    -0.802000000    -4.554000000    -4.162000000
C    -0.883000000    -2.418000000    -4.171000000
C    -1.779000000    -1.383000000    -4.472000000
H    -2.844000000    -1.598000000    -4.467000000
C     0.500000000    -2.111000000    -4.158000000
C     0.969000000    -0.821000000    -4.379000000
H     2.018000000    -0.545000000    -4.302000000
C     0.063000000     0.181000000    -4.663000000
O     0.514000000     1.510000000    -4.750000000
C     0.444000000     2.305000000    -3.536000000
C     1.740000000     3.071000000    -3.236000000
C     2.939000000     2.480000000    -3.581000000
H     2.846000000     1.497000000    -4.036000000
C     1.753000000     4.280000000    -2.650000000
H     0.836000000     4.725000000    -2.272000000
O    -0.751000000     3.105000000    -3.785000000
H     0.318000000     1.543000000    -2.752000000
C    -1.330000000    -0.101000000    -4.725000000
C    -2.380000000     0.999000000    -4.897000000
H    -3.315000000     0.608000000    -5.303000000
H    -1.980000000     1.709000000    -5.625000000
C    -2.732000000     1.694000000    -3.563000000
C    -1.919000000     2.730000000    -3.123000000
C    -2.160000000     3.430000000    -1.935000000
H    -1.372000000     4.122000000    -1.649000000
C    -3.216000000     3.015000000    -1.110000000
O    -3.214000000     3.539000000     0.190000000
C    -2.849000000     2.647000000     1.252000000
H    -2.366000000     1.791000000     0.759000000
C    -1.963000000     3.400000000     2.256000000
C    -2.269000000     3.333000000     3.635000000
H    -3.038000000     2.705000000     4.077000000
C    -0.943000000     4.149000000     1.801000000
H    -0.783000000     4.184000000     0.727000000
C    -0.226000000     4.907000000     2.768000000
O     0.824000000     5.701000000     2.444000000
C    -0.595000000     4.939000000     4.081000000
H     0.011000000     5.597000000     4.700000000
C    -1.582000000     4.119000000     4.552000000
O    -1.923000000     3.963000000     5.851000000
C    -2.060000000     2.712000000     6.398000000
C    -1.175000000     1.701000000     6.139000000
H    -0.220000000     1.932000000     5.675000000
C    -3.213000000     2.320000000     7.137000000
H    -3.912000000     3.086000000     7.461000000
C    -3.441000000     1.016000000     7.524000000
H    -4.303000000     0.702000000     8.107000000
C    -2.561000000     0.015000000     7.221000000
H    -2.662000000    -1.059000000     7.355000000
C    -1.380000000     0.413000000     6.607000000
O    -0.331000000    -0.474000000     6.469000000
C    -0.295000000    -1.496000000     5.493000000
C     0.829000000    -2.351000000     5.490000000
H     1.591000000    -2.215000000     6.253000000
C     0.970000000    -3.355000000     4.589000000
O     2.179000000    -3.962000000     4.518000000
C     2.512000000    -4.908000000     3.613000000
C     3.498000000    -4.704000000     2.661000000
H     3.895000000    -3.696000000     2.570000000
C     1.835000000    -6.125000000     3.645000000
H     1.045000000    -6.264000000     4.378000000
C     2.192000000    -7.140000000     2.733000000
H     1.733000000    -8.125000000     2.750000000
C     3.170000000    -6.897000000     1.840000000
H     3.404000000    -7.584000000     1.030000000
C     3.813000000    -5.648000000     1.708000000
O     4.727000000    -5.465000000     0.695000000
C     4.393000000    -4.496000000    -0.292000000
C     5.368000000    -3.659000000    -0.673000000
H     6.291000000    -3.580000000    -0.105000000
C     5.122000000    -2.736000000    -1.691000000
O     6.156000000    -1.849000000    -2.165000000
C     5.978000000    -1.016000000    -3.250000000
C     5.895000000     0.375000000    -3.041000000
H     6.144000000     0.718000000    -2.040000000
C     5.663000000    -1.521000000    -4.537000000
H     5.540000000    -2.587000000    -4.709000000
C     5.248000000    -0.593000000    -5.562000000
H     5.040000000    -0.901000000    -6.583000000
C     5.296000000     0.767000000    -5.287000000
H     4.934000000     1.462000000    -6.040000000
C     5.537000000     1.210000000    -4.032000000
O     5.419000000     2.527000000    -3.794000000
C     4.218000000     3.134000000    -3.420000000
C     4.190000000     4.424000000    -2.870000000
H     5.115000000     4.982000000    -2.752000000
C     2.978000000     4.961000000    -2.456000000
O     2.920000000     6.232000000    -1.924000000
C     2.112000000     6.697000000    -0.854000000
C     1.369000000     7.867000000    -1.003000000
H     1.531000000     8.512000000    -1.862000000
C     0.506000000     8.389000000    -0.045000000
H     0.226000000     9.439000000    -0.089000000
C     0.286000000     7.604000000     1.088000000
H    -0.411000000     7.977000000     1.834000000
C     0.954000000     6.408000000     1.262000000
C     1.919000000     5.973000000     0.316000000
H     2.410000000     5.008000000     0.411000000
C     3.252000000    -0.096000000    -0.337000000
H     4.062000000     0.116000000    -1.030000000
C     1.983000000    -0.249000000    -0.863000000
H     1.807000000    -0.293000000    -1.934000000
C     0.880000000    -0.394000000     0.011000000
H    -0.139000000    -0.412000000    -0.424000000
C     1.056000000    -0.397000000     1.386000000
H     0.202000000    -0.561000000     2.038000000
C     2.395000000    -0.345000000     1.923000000
H     2.640000000    -0.416000000     2.979000000
C     3.497000000    -0.123000000     1.021000000
C     4.874000000     0.030000000     1.674000000
O     4.978000000     0.491000000     2.776000000
O     5.810000000    -0.184000000     0.924000000
O    10.836000000     0.557000000     0.357000000
H    10.038000000     0.032000000     0.292000000
H    10.551000000     1.374000000     0.766000000
O     3.802000000    -2.154000000     7.271000000
H     4.062000000    -1.602000000     8.008000000
H     4.036000000    -1.644000000     6.496000000
O     9.627000000     2.728000000     1.109000000
H     8.859000000     2.168000000     0.998000000
H     9.768000000     3.116000000     0.245000000
O     8.111000000     0.761000000    -0.103000000
H     7.527000000     0.084000000     0.239000000
H     7.549000000     1.528000000    -0.213000000
O     6.521000000     4.015000000     2.380000000
H     5.597000000     3.818000000     2.226000000
H     6.915000000     3.168000000     2.591000000
O     1.499000000     2.672000000     3.663000000
H     2.163000000     3.146000000     3.162000000
H     0.701000000     3.187000000     3.552000000
O     9.703000000    -0.367000000     3.288000000
H    10.525000000    -0.641000000     2.880000000
H     9.945000000    -0.146000000     4.188000000
O     2.567000000     0.632000000     5.588000000
H     2.339000000     1.140000000     4.809000000
H     1.725000000     0.341000000     5.939000000
O     7.495000000     1.468000000     2.831000000
H     8.244000000     0.897000000     3.002000000
H     6.788000000     0.870000000     2.588000000
O     7.717000000     1.536000000     6.048000000
H     7.006000000     0.904000000     6.149000000
H     7.398000000     2.154000000     5.391000000
O     6.768000000     2.991000000    -0.929000000
H     7.021000000     3.863000000    -0.625000000
H     6.636000000     3.094000000    -1.871000000
O     5.481000000    -1.530000000     4.846000000
H     5.034000000    -0.996000000     4.190000000
H     6.319000000    -1.755000000     4.441000000
O     6.824000000    -2.747000000     6.889000000
H     6.414000000    -2.334000000     6.129000000
H     6.089000000    -3.030000000     7.433000000
O     8.956000000     1.293000000    -2.505000000
H     8.648000000     0.888000000    -1.694000000
H     9.793000000     0.866000000    -2.683000000
O     4.057000000     3.077000000     2.147000000
H     3.380000000     3.135000000     1.473000000
H     3.977000000     2.187000000     2.491000000
O     4.907000000     1.655000000     5.177000000
H     4.073000000     1.373000000     5.553000000
H     5.063000000     1.046000000     4.455000000
O     1.626000000     2.576000000     0.774000000
H     0.844000000     2.291000000     1.247000000
H     2.039000000     1.763000000     0.483000000
O     4.677000000     4.230000000     5.017000000
H     4.390000000     4.254000000     4.104000000
H     4.996000000     3.337000000     5.145000000
O     7.088000000    -2.212000000     2.190000000
H     6.468000000    -1.759000000     1.619000000
H     7.947000000    -1.904000000     1.903000000
