215
-1463.29511
C    -0.050000000    -3.546000000     3.701000000
H     0.025000000    -4.175000000     2.818000000
C    -1.131000000    -2.650000000     3.700000000
C    -1.227000000    -1.802000000     4.793000000
H    -1.947000000    -0.988000000     4.811000000
C    -2.095000000    -2.544000000     2.502000000
O    -2.230000000    -3.820000000     1.815000000
H    -1.788000000    -1.809000000     1.744000000
O    -3.363000000    -2.039000000     2.962000000
C    -4.007000000    -1.166000000     2.143000000
C    -3.918000000     0.151000000     2.556000000
H    -3.435000000     0.416000000     3.493000000
C    -4.297000000     1.196000000     1.670000000
O    -4.057000000     2.480000000     1.924000000
C    -4.773000000     0.874000000     0.355000000
C    -5.166000000     1.920000000    -0.658000000
H    -6.023000000     1.556000000    -1.229000000
C    -3.896000000     2.338000000    -1.456000000
C    -3.690000000     1.714000000    -2.734000000
H    -4.393000000     0.974000000    -3.111000000
H    -5.510000000     2.765000000    -0.057000000
C    -4.947000000    -0.463000000     0.050000000
H    -5.427000000    -0.766000000    -0.877000000
C    -4.617000000    -1.515000000     0.924000000
C    -4.756000000    -2.987000000     0.509000000
H    -5.651000000    -3.122000000    -0.102000000
H    -4.892000000    -3.655000000     1.363000000
C    -3.425000000    -3.347000000    -0.224000000
C    -3.397000000    -3.322000000    -1.598000000
H    -4.256000000    -2.981000000    -2.172000000
C    -2.316000000    -3.862000000     0.456000000
C    -1.137000000    -4.130000000    -0.179000000
H    -0.338000000    -4.501000000     0.457000000
C    -1.042000000    -3.955000000    -1.580000000
O     0.182000000    -4.300000000    -2.141000000
C     1.016000000    -3.177000000    -2.548000000
C     2.526000000    -3.477000000    -2.150000000
C     3.535000000    -3.171000000    -3.024000000
H     3.323000000    -2.703000000    -3.983000000
C     2.730000000    -4.054000000    -0.882000000
H     1.911000000    -4.317000000    -0.219000000
O     0.873000000    -3.040000000    -3.996000000
H     0.643000000    -2.234000000    -2.120000000
C    -2.167000000    -3.574000000    -2.328000000
C    -2.000000000    -3.424000000    -3.877000000
H    -2.969000000    -3.536000000    -4.367000000
H    -1.391000000    -4.265000000    -4.214000000
C    -1.278000000    -2.146000000    -4.283000000
C    -2.089000000    -1.016000000    -4.485000000
H    -3.156000000    -1.172000000    -4.353000000
C     0.115000000    -2.021000000    -4.376000000
C     0.697000000    -0.832000000    -4.711000000
H     1.779000000    -0.796000000    -4.805000000
C    -0.090000000     0.356000000    -4.767000000
O     0.540000000     1.571000000    -4.777000000
C     0.564000000     2.243000000    -3.540000000
C     1.964000000     2.826000000    -3.281000000
C     3.083000000     2.166000000    -3.699000000
H     2.888000000     1.369000000    -4.412000000
C     2.096000000     3.898000000    -2.375000000
H     1.224000000     4.322000000    -1.884000000
O    -0.472000000     3.296000000    -3.478000000
H     0.287000000     1.537000000    -2.743000000
C    -1.485000000     0.183000000    -4.715000000
C    -2.401000000     1.355000000    -4.818000000
H    -3.345000000     1.013000000    -5.248000000
H    -1.885000000     2.080000000    -5.450000000
C    -2.598000000     2.077000000    -3.477000000
C    -1.670000000     2.967000000    -2.931000000
C    -1.850000000     3.588000000    -1.686000000
H    -1.206000000     4.395000000    -1.345000000
C    -2.958000000     3.321000000    -0.970000000
O    -3.179000000     3.828000000     0.247000000
C    -2.873000000     3.044000000     1.415000000
H    -2.263000000     2.159000000     1.181000000
C    -2.137000000     3.908000000     2.428000000
C    -2.008000000     3.411000000     3.718000000
H    -2.613000000     2.638000000     4.185000000
C    -1.159000000     4.913000000     2.079000000
H    -1.005000000     5.240000000     1.054000000
C    -0.184000000     5.304000000     2.987000000
O     0.750000000     6.175000000     2.609000000
C    -0.211000000     4.850000000     4.271000000
H     0.451000000     5.363000000     4.963000000
C    -1.155000000     3.968000000     4.676000000
O    -1.198000000     3.637000000     6.028000000
C    -1.562000000     2.469000000     6.554000000
C    -0.888000000     1.359000000     6.175000000
H    -0.128000000     1.516000000     5.414000000
C    -2.535000000     2.408000000     7.591000000
H    -3.093000000     3.319000000     7.797000000
C    -2.807000000     1.227000000     8.243000000
H    -3.599000000     1.098000000     8.976000000
C    -2.017000000     0.123000000     7.891000000
H    -2.287000000    -0.813000000     8.373000000
C    -0.999000000     0.166000000     6.911000000
O    -0.117000000    -0.858000000     6.781000000
C    -0.253000000    -1.796000000     5.783000000
C     0.730000000    -2.796000000     5.827000000
H     1.410000000    -2.947000000     6.662000000
C     0.923000000    -3.568000000     4.743000000
O     2.005000000    -4.494000000     4.668000000
C     2.327000000    -5.237000000     3.621000000
C     3.220000000    -4.731000000     2.669000000
H     3.626000000    -3.734000000     2.819000000
C     1.688000000    -6.442000000     3.360000000
H     0.901000000    -6.853000000     3.988000000
C     1.935000000    -7.186000000     2.231000000
H     1.532000000    -8.195000000     2.204000000
C     2.849000000    -6.751000000     1.313000000
H     3.149000000    -7.365000000     0.468000000
C     3.531000000    -5.534000000     1.580000000
O     4.355000000    -4.970000000     0.630000000
C     4.024000000    -4.303000000    -0.484000000
C     5.111000000    -3.878000000    -1.329000000
H     6.136000000    -3.944000000    -0.971000000
C     4.875000000    -3.292000000    -2.595000000
O     5.943000000    -2.757000000    -3.272000000
C     5.842000000    -1.663000000    -4.075000000
C     5.908000000    -0.381000000    -3.510000000
H     6.066000000    -0.200000000    -2.450000000
C     5.342000000    -1.938000000    -5.359000000
H     5.226000000    -2.956000000    -5.721000000
C     5.016000000    -0.837000000    -6.237000000
H     4.657000000    -1.020000000    -7.246000000
C     5.166000000     0.414000000    -5.664000000
H     4.936000000     1.290000000    -6.264000000
C     5.530000000     0.652000000    -4.363000000
O     5.552000000     1.987000000    -3.909000000
C     4.390000000     2.593000000    -3.347000000
C     4.490000000     3.653000000    -2.394000000
H     5.464000000     3.956000000    -2.021000000
C     3.383000000     4.301000000    -1.899000000
O     3.523000000     5.373000000    -1.070000000
C     2.505000000     6.128000000    -0.557000000
C     1.975000000     7.206000000    -1.306000000
H     2.284000000     7.359000000    -2.337000000
C     1.026000000     7.980000000    -0.688000000
H     0.635000000     8.841000000    -1.226000000
C     0.559000000     7.580000000     0.583000000
H    -0.128000000     8.189000000     1.165000000
C     1.065000000     6.475000000     1.276000000
C     2.035000000     5.778000000     0.680000000
H     2.588000000     5.014000000     1.221000000
C     3.356000000    -0.289000000    -0.458000000
H     4.210000000    -0.041000000    -1.083000000
C     2.051000000    -0.244000000    -0.876000000
H     1.736000000    -0.175000000    -1.914000000
C     1.009000000    -0.465000000     0.076000000
H     0.020000000    -0.652000000    -0.300000000
C     1.305000000    -0.734000000     1.434000000
H     0.538000000    -0.917000000     2.182000000
C     2.642000000    -0.750000000     1.869000000
H     2.932000000    -0.968000000     2.894000000
C     3.681000000    -0.530000000     0.888000000
C     5.116000000    -0.325000000     1.354000000
O     5.411000000    -0.569000000     2.531000000
O     5.954000000     0.031000000     0.538000000
O     7.163000000    -5.009000000     1.769000000
H     7.243000000    -4.216000000     1.238000000
H     6.338000000    -5.403000000     1.487000000
O     4.394000000    -2.874000000     5.895000000
H     4.805000000    -2.051000000     6.159000000
H     5.030000000    -3.280000000     5.306000000
O     7.315000000    -2.461000000     0.511000000
H     7.962000000    -2.167000000     1.153000000
H     6.801000000    -1.679000000     0.314000000
O     8.727000000    -2.567000000    -2.337000000
H     8.930000000    -1.659000000    -2.112000000
H     8.037000000    -2.502000000    -2.997000000
O     7.433000000     4.262000000     0.380000000
H     8.373000000     4.104000000     0.291000000
H     7.261000000     5.010000000    -0.191000000
O     1.858000000     1.928000000     4.061000000
H     2.703000000     2.373000000     4.125000000
H     1.939000000     1.373000000     3.285000000
O     9.690000000     1.677000000     1.261000000
H    10.391000000     1.290000000     1.785000000
H     9.184000000     2.197000000     1.886000000
O     8.249000000    -0.608000000     2.392000000
H     7.401000000    -0.251000000     2.127000000
H     8.774000000     0.161000000     2.614000000
O     2.665000000     0.067000000     6.450000000
H     2.657000000     0.652000000     5.693000000
H     1.921000000    -0.518000000     6.308000000
O     8.224000000     0.792000000    -0.621000000
H     8.712000000     1.211000000     0.087000000
H     7.422000000     0.474000000    -0.204000000
O     8.043000000     2.057000000     3.586000000
H     8.240000000     2.709000000     4.259000000
H     7.277000000     1.591000000     3.922000000
O     8.728000000     0.972000000    -3.197000000
H     8.059000000     1.557000000    -3.552000000
H     8.511000000     0.896000000    -2.268000000
O     9.321000000    -2.209000000     4.392000000
H     9.000000000    -1.663000000     3.674000000
H     8.699000000    -2.059000000     5.104000000
O     6.205000000    -2.983000000     3.841000000
H     5.940000000    -2.162000000     3.425000000
H     6.852000000    -3.357000000     3.243000000
O     6.445000000    -0.846000000     6.660000000
H     6.575000000    -0.173000000     7.328000000
H     7.331000000    -1.106000000     6.408000000
O     5.531000000     3.771000000     2.611000000
H     5.172000000     3.718000000     1.726000000
H     6.390000000     3.352000000     2.547000000
O     5.669000000     0.831000000     4.771000000
H     5.867000000     0.122000000     5.382000000
H     5.462000000     0.387000000     3.948000000
O     5.113000000     2.539000000     0.392000000
H     5.409000000     1.632000000     0.471000000
H     5.849000000     2.996000000    -0.016000000
O     4.177000000     3.028000000     4.723000000
H     4.593000000     3.384000000     3.938000000
H     4.711000000     2.268000000     4.954000000
