215
-1475.67629
C    -0.412000000    -3.855000000     3.960000000
H    -0.473000000    -4.640000000     3.210000000
C    -1.264000000    -2.740000000     4.094000000
C    -1.108000000    -1.840000000     5.170000000
H    -1.802000000    -1.024000000     5.354000000
C    -2.352000000    -2.505000000     3.072000000
O    -2.648000000    -3.753000000     2.415000000
H    -1.743000000    -1.951000000     2.342000000
O    -3.437000000    -1.698000000     3.496000000
C    -3.866000000    -0.756000000     2.662000000
C    -3.579000000     0.599000000     2.995000000
H    -3.059000000     0.734000000     3.941000000
C    -4.041000000     1.597000000     2.123000000
O    -3.571000000     2.874000000     2.363000000
C    -4.646000000     1.234000000     0.876000000
C    -5.088000000     2.252000000    -0.102000000
H    -5.918000000     1.876000000    -0.704000000
C    -3.959000000     2.589000000    -1.075000000
C    -3.955000000     1.876000000    -2.276000000
H    -4.679000000     1.079000000    -2.422000000
H    -5.465000000     3.165000000     0.363000000
C    -4.922000000    -0.086000000     0.556000000
H    -5.468000000    -0.348000000    -0.347000000
C    -4.544000000    -1.073000000     1.453000000
C    -4.960000000    -2.459000000     1.024000000
H    -5.835000000    -2.563000000     0.379000000
H    -5.250000000    -2.987000000     1.935000000
C    -3.834000000    -3.169000000     0.323000000
C    -3.813000000    -3.183000000    -1.069000000
H    -4.638000000    -2.650000000    -1.535000000
C    -2.743000000    -3.793000000     1.004000000
C    -1.677000000    -4.295000000     0.271000000
H    -0.881000000    -4.803000000     0.808000000
C    -1.650000000    -4.237000000    -1.120000000
O    -0.451000000    -4.496000000    -1.759000000
C     0.347000000    -3.497000000    -2.423000000
C     1.863000000    -3.697000000    -2.089000000
C     2.814000000    -3.293000000    -3.044000000
H     2.469000000    -3.080000000    -4.052000000
C     2.290000000    -4.154000000    -0.859000000
H     1.551000000    -4.335000000    -0.082000000
O     0.080000000    -3.440000000    -3.831000000
H     0.099000000    -2.551000000    -1.920000000
C    -2.721000000    -3.708000000    -1.803000000
C    -2.759000000    -3.577000000    -3.331000000
H    -3.786000000    -3.645000000    -3.694000000
H    -2.263000000    -4.417000000    -3.821000000
C    -2.088000000    -2.291000000    -3.829000000
C    -2.779000000    -1.091000000    -4.057000000
H    -3.844000000    -1.013000000    -3.854000000
C    -0.701000000    -2.290000000    -4.146000000
C    -0.072000000    -1.108000000    -4.375000000
H     1.010000000    -1.057000000    -4.474000000
C    -0.754000000     0.098000000    -4.510000000
O     0.029000000     1.186000000    -4.691000000
C     0.237000000     2.112000000    -3.578000000
C     1.718000000     2.608000000    -3.395000000
C     2.740000000     2.014000000    -4.114000000
H     2.594000000     1.146000000    -4.752000000
C     1.982000000     3.692000000    -2.557000000
H     1.164000000     4.165000000    -2.020000000
O    -0.765000000     3.223000000    -3.651000000
H     0.080000000     1.539000000    -2.653000000
C    -2.125000000     0.128000000    -4.398000000
C    -2.921000000     1.441000000    -4.520000000
H    -3.922000000     1.163000000    -4.855000000
H    -2.547000000     2.141000000    -5.270000000
C    -2.945000000     2.200000000    -3.227000000
C    -1.972000000     3.140000000    -2.901000000
C    -1.981000000     3.844000000    -1.726000000
H    -1.240000000     4.591000000    -1.454000000
C    -3.047000000     3.620000000    -0.836000000
O    -2.910000000     4.056000000     0.428000000
C    -2.421000000     3.232000000     1.447000000
H    -1.911000000     2.315000000     1.116000000
C    -1.297000000     3.954000000     2.161000000
C    -0.878000000     3.380000000     3.367000000
H    -1.177000000     2.364000000     3.615000000
C    -0.742000000     5.133000000     1.708000000
H    -1.092000000     5.581000000     0.781000000
C     0.319000000     5.693000000     2.432000000
O     0.908000000     6.864000000     2.007000000
C     0.658000000     5.137000000     3.673000000
H     1.507000000     5.554000000     4.208000000
C     0.033000000     4.010000000     4.169000000
O     0.554000000     3.472000000     5.319000000
C    -0.077000000     2.473000000     6.074000000
C     0.378000000     1.130000000     5.976000000
H     1.229000000     0.892000000     5.342000000
C    -1.245000000     2.697000000     6.776000000
H    -1.575000000     3.732000000     6.819000000
C    -1.874000000     1.741000000     7.530000000
H    -2.828000000     1.975000000     7.998000000
C    -1.303000000     0.500000000     7.585000000
H    -1.694000000    -0.315000000     8.189000000
C    -0.199000000     0.177000000     6.800000000
O     0.346000000    -1.098000000     6.936000000
C    -0.026000000    -2.001000000     6.024000000
C     0.899000000    -2.999000000     5.803000000
H     1.720000000    -3.073000000     6.512000000
C     0.703000000    -3.975000000     4.863000000
O     1.608000000    -4.979000000     4.828000000
C     2.021000000    -5.586000000     3.649000000
C     2.697000000    -4.805000000     2.726000000
H     2.723000000    -3.724000000     2.838000000
C     2.094000000    -6.984000000     3.586000000
H     1.683000000    -7.573000000     4.401000000
C     2.596000000    -7.597000000     2.414000000
H     2.788000000    -8.666000000     2.378000000
C     3.069000000    -6.760000000     1.386000000
H     3.458000000    -7.167000000     0.456000000
C     3.232000000    -5.399000000     1.593000000
O     3.998000000    -4.772000000     0.639000000
C     3.606000000    -4.311000000    -0.587000000
C     4.543000000    -3.807000000    -1.466000000
H     5.591000000    -3.832000000    -1.179000000
C     4.173000000    -3.366000000    -2.737000000
O     5.107000000    -3.071000000    -3.660000000
C     5.001000000    -2.016000000    -4.541000000
C     4.932000000    -0.658000000    -4.079000000
H     4.895000000    -0.512000000    -3.003000000
C     5.105000000    -2.257000000    -5.875000000
H     5.141000000    -3.273000000    -6.260000000
C     5.177000000    -1.139000000    -6.756000000
H     5.132000000    -1.357000000    -7.820000000
C     4.952000000     0.150000000    -6.273000000
H     4.843000000     1.005000000    -6.934000000
C     5.023000000     0.417000000    -4.940000000
O     5.079000000     1.724000000    -4.497000000
C     4.049000000     2.337000000    -3.865000000
C     4.338000000     3.331000000    -2.977000000
H     5.371000000     3.493000000    -2.680000000
C     3.309000000     4.092000000    -2.376000000
O     3.679000000     4.974000000    -1.421000000
C     2.901000000     5.984000000    -0.940000000
C     2.892000000     7.154000000    -1.661000000
H     3.422000000     7.147000000    -2.610000000
C     2.267000000     8.275000000    -1.117000000
H     2.374000000     9.198000000    -1.682000000
C     1.655000000     8.200000000     0.091000000
H     1.210000000     9.071000000     0.565000000
C     1.588000000     6.963000000     0.756000000
C     2.245000000     5.836000000     0.256000000
H     2.271000000     4.882000000     0.776000000
C     3.215000000    -0.570000000     0.450000000
H     4.210000000    -0.610000000     0.014000000
C     2.019000000    -0.293000000    -0.276000000
H     1.977000000    -0.073000000    -1.340000000
C     0.790000000    -0.317000000     0.435000000
H    -0.118000000    -0.059000000    -0.140000000
C     0.777000000    -0.679000000     1.774000000
H    -0.126000000    -0.522000000     2.358000000
C     1.929000000    -1.007000000     2.463000000
H     1.890000000    -1.465000000     3.448000000
C     3.132000000    -0.915000000     1.803000000
C     4.350000000    -1.412000000     2.513000000
O     4.268000000    -1.840000000     3.641000000
O     5.434000000    -1.341000000     1.987000000
O     7.046000000    -5.621000000     0.267000000
H     6.099000000    -5.761000000     0.280000000
H     7.212000000    -5.041000000     1.010000000
O     3.726000000    -2.213000000     7.895000000
H     3.118000000    -2.169000000     8.633000000
H     3.872000000    -1.299000000     7.650000000
O     7.080000000    -3.490000000     2.223000000
H     6.405000000    -2.859000000     1.972000000
H     6.984000000    -3.579000000     3.171000000
O     6.203000000    -2.381000000     6.516000000
H     6.190000000    -3.026000000     5.809000000
H     5.369000000    -2.506000000     6.969000000
O     4.052000000    -5.086000000     7.522000000
H     4.099000000    -4.247000000     7.980000000
H     3.780000000    -4.860000000     6.633000000
O     7.423000000    -0.257000000    -2.336000000
H     6.994000000    -0.262000000    -1.481000000
H     7.332000000     0.645000000    -2.645000000
O     3.533000000     2.491000000     4.939000000
H     3.917000000     3.358000000     5.068000000
H     3.290000000     2.471000000     4.013000000
O     8.047000000     2.397000000     1.733000000
H     7.668000000     2.888000000     2.462000000
H     8.819000000     1.972000000     2.107000000
O     7.310000000    -0.828000000     4.561000000
H     6.970000000    -1.218000000     5.366000000
H     6.766000000    -1.200000000     3.866000000
O     3.751000000     1.149000000     8.087000000
H     3.754000000     1.030000000     7.138000000
H     3.909000000     2.085000000     8.212000000
O     6.974000000     0.260000000     0.222000000
H     7.305000000     1.091000000     0.564000000
H     6.513000000    -0.137000000     0.961000000
O     6.227000000     1.806000000     5.416000000
H     5.273000000     1.729000000     5.417000000
H     6.535000000     0.953000000     5.109000000
O     9.339000000    -1.950000000     1.762000000
H     9.915000000    -2.714000000     1.794000000
H     8.456000000    -2.312000000     1.845000000
O     7.455000000    -5.711000000     4.802000000
H     8.251000000    -5.299000000     5.138000000
H     6.817000000    -4.999000000     4.757000000
O     5.419000000    -3.884000000     4.482000000
H     5.045000000    -3.022000000     4.300000000
H     4.821000000    -4.499000000     4.056000000
O    10.171000000    -1.141000000     4.760000000
H    10.463000000    -0.997000000     3.860000000
H     9.224000000    -1.261000000     4.688000000
O     7.147000000     3.897000000     3.893000000
H     6.710000000     4.688000000     4.210000000
H     6.803000000     3.196000000     4.446000000
O     4.084000000    -0.073000000     5.539000000
H     3.492000000     0.513000000     5.067000000
H     4.301000000    -0.756000000     4.905000000
O     3.276000000     2.541000000     2.186000000
H     4.016000000     3.077000000     1.899000000
H     3.055000000     2.009000000     1.422000000
