215
-1465.68863
C     0.135000000    -3.198000000     3.291000000
H     0.194000000    -3.490000000     2.246000000
C    -1.062000000    -2.629000000     3.747000000
C    -1.067000000    -2.047000000     5.069000000
H    -1.939000000    -1.489000000     5.400000000
C    -2.223000000    -2.445000000     2.737000000
O    -2.440000000    -3.633000000     2.053000000
H    -1.890000000    -1.617000000     2.094000000
O    -3.429000000    -1.971000000     3.444000000
C    -4.044000000    -0.917000000     2.797000000
C    -3.735000000     0.327000000     3.259000000
H    -3.183000000     0.338000000     4.195000000
C    -3.935000000     1.401000000     2.393000000
O    -3.401000000     2.601000000     2.735000000
C    -4.538000000     1.291000000     1.169000000
C    -4.915000000     2.513000000     0.409000000
H    -5.874000000     2.416000000    -0.104000000
C    -3.873000000     2.979000000    -0.646000000
C    -3.957000000     2.444000000    -1.939000000
H    -4.796000000     1.784000000    -2.144000000
H    -5.142000000     3.317000000     1.113000000
C    -4.909000000     0.024000000     0.780000000
H    -5.298000000    -0.149000000    -0.220000000
C    -4.718000000    -1.082000000     1.590000000
C    -5.000000000    -2.508000000     0.998000000
H    -5.880000000    -2.236000000     0.412000000
H    -5.230000000    -3.307000000     1.706000000
C    -3.827000000    -2.887000000     0.153000000
C    -3.947000000    -2.748000000    -1.193000000
H    -4.771000000    -2.183000000    -1.622000000
C    -2.693000000    -3.534000000     0.702000000
C    -1.692000000    -3.927000000    -0.203000000
H    -0.769000000    -4.447000000     0.041000000
C    -1.759000000    -3.688000000    -1.575000000
O    -0.786000000    -4.200000000    -2.338000000
C     0.154000000    -3.255000000    -2.872000000
C     1.633000000    -3.636000000    -2.830000000
C     2.595000000    -3.149000000    -3.708000000
H     2.219000000    -2.542000000    -4.527000000
C     2.003000000    -4.509000000    -1.835000000
H     1.287000000    -4.926000000    -1.132000000
O    -0.209000000    -2.883000000    -4.228000000
H     0.005000000    -2.330000000    -2.296000000
C    -2.863000000    -3.079000000    -2.042000000
C    -3.145000000    -2.884000000    -3.542000000
H    -4.203000000    -2.759000000    -3.779000000
H    -2.723000000    -3.787000000    -3.989000000
C    -2.367000000    -1.701000000    -4.002000000
C    -3.027000000    -0.460000000    -4.040000000
H    -4.042000000    -0.389000000    -3.660000000
C    -1.020000000    -1.750000000    -4.322000000
C    -0.371000000    -0.575000000    -4.703000000
H     0.688000000    -0.607000000    -4.949000000
C    -1.008000000     0.621000000    -4.652000000
O    -0.297000000     1.743000000    -4.859000000
C     0.118000000     2.449000000    -3.636000000
C     1.545000000     2.895000000    -3.618000000
C     2.508000000     2.139000000    -4.278000000
H     2.143000000     1.267000000    -4.816000000
C     1.998000000     3.965000000    -2.859000000
H     1.249000000     4.467000000    -2.252000000
O    -0.808000000     3.540000000    -3.358000000
H     0.064000000     1.804000000    -2.747000000
C    -2.311000000     0.734000000    -4.307000000
C    -3.091000000     2.043000000    -4.267000000
H    -4.128000000     1.884000000    -4.571000000
H    -2.648000000     2.747000000    -4.974000000
C    -2.996000000     2.639000000    -2.884000000
C    -1.866000000     3.325000000    -2.516000000
C    -1.748000000     3.879000000    -1.205000000
H    -0.814000000     4.385000000    -0.976000000
C    -2.734000000     3.711000000    -0.206000000
O    -2.550000000     4.103000000     1.140000000
C    -2.147000000     3.061000000     2.090000000
H    -1.710000000     2.186000000     1.586000000
C    -1.078000000     3.526000000     2.971000000
C    -0.965000000     3.264000000     4.363000000
H    -1.822000000     2.942000000     4.950000000
C     0.073000000     3.956000000     2.315000000
H     0.091000000     4.107000000     1.239000000
C     1.240000000     4.143000000     3.014000000
O     2.495000000     4.403000000     2.411000000
C     1.403000000     3.837000000     4.366000000
H     2.336000000     3.841000000     4.924000000
C     0.228000000     3.392000000     5.050000000
O     0.400000000     3.131000000     6.409000000
C     0.090000000     2.022000000     7.103000000
C     0.326000000     0.736000000     6.698000000
H     0.852000000     0.508000000     5.774000000
C    -0.587000000     2.273000000     8.299000000
H    -0.838000000     3.278000000     8.626000000
C    -0.874000000     1.160000000     9.160000000
H    -1.490000000     1.315000000    10.042000000
C    -0.713000000    -0.132000000     8.743000000
H    -0.967000000    -1.003000000     9.342000000
C    -0.070000000    -0.322000000     7.522000000
O     0.131000000    -1.598000000     7.175000000
C     0.104000000    -2.093000000     5.858000000
C     1.229000000    -2.743000000     5.440000000
H     1.992000000    -3.004000000     6.169000000
C     1.297000000    -3.225000000     4.136000000
O     2.464000000    -3.812000000     3.673000000
C     2.444000000    -4.926000000     2.772000000
C     3.140000000    -4.804000000     1.580000000
H     3.830000000    -3.966000000     1.513000000
C     1.670000000    -6.046000000     2.972000000
H     1.177000000    -6.229000000     3.923000000
C     1.564000000    -6.931000000     1.896000000
H     0.880000000    -7.771000000     1.985000000
C     2.363000000    -6.888000000     0.769000000
H     2.257000000    -7.632000000    -0.016000000
C     3.121000000    -5.742000000     0.550000000
O     3.860000000    -5.584000000    -0.595000000
C     3.430000000    -4.857000000    -1.717000000
C     4.357000000    -4.382000000    -2.643000000
H     5.412000000    -4.636000000    -2.572000000
C     3.952000000    -3.447000000    -3.558000000
O     4.993000000    -2.924000000    -4.341000000
C     4.772000000    -1.828000000    -5.165000000
C     4.799000000    -0.506000000    -4.627000000
H     4.962000000    -0.296000000    -3.573000000
C     4.527000000    -2.077000000    -6.508000000
H     4.552000000    -3.077000000    -6.935000000
C     4.242000000    -1.064000000    -7.340000000
H     4.112000000    -1.118000000    -8.418000000
C     4.215000000     0.251000000    -6.889000000
H     4.008000000     1.106000000    -7.527000000
C     4.519000000     0.545000000    -5.498000000
O     4.730000000     1.819000000    -5.097000000
C     3.823000000     2.514000000    -4.296000000
C     4.229000000     3.647000000    -3.608000000
H     5.270000000     3.945000000    -3.693000000
C     3.375000000     4.325000000    -2.747000000
O     3.866000000     5.289000000    -1.906000000
C     3.268000000     5.720000000    -0.798000000
C     2.692000000     6.983000000    -0.748000000
H     2.712000000     7.616000000    -1.631000000
C     2.057000000     7.445000000     0.385000000
H     1.530000000     8.393000000     0.307000000
C     2.022000000     6.576000000     1.547000000
H     1.556000000     6.931000000     2.462000000
C     2.622000000     5.354000000     1.466000000
C     3.216000000     4.940000000     0.307000000
H     3.522000000     3.897000000     0.268000000
C     2.382000000    -0.421000000     0.312000000
H     3.257000000    -0.701000000    -0.270000000
C     1.102000000    -0.437000000    -0.324000000
H     1.056000000    -0.597000000    -1.398000000
C    -0.076000000    -0.129000000     0.412000000
H    -1.018000000    -0.139000000    -0.048000000
C     0.037000000     0.123000000     1.749000000
H    -0.833000000     0.376000000     2.351000000
C     1.243000000     0.002000000     2.406000000
H     1.194000000     0.048000000     3.491000000
C     2.465000000    -0.318000000     1.742000000
C     3.607000000    -0.525000000     2.608000000
O     3.517000000    -0.319000000     3.776000000
O     4.655000000    -0.860000000     2.096000000
O     5.758000000    -1.062000000     7.142000000
H     4.962000000    -1.521000000     6.876000000
H     6.470000000    -1.653000000     6.894000000
O     4.161000000    -5.001000000     6.706000000
H     3.768000000    -5.769000000     6.294000000
H     3.522000000    -4.729000000     7.365000000
O     4.715000000     2.665000000     3.523000000
H     3.896000000     2.864000000     3.069000000
H     4.518000000     1.885000000     4.041000000
O     6.806000000    -5.630000000     2.287000000
H     7.763000000    -5.618000000     2.316000000
H     6.554000000    -4.707000000     2.324000000
O     7.812000000    -2.487000000     6.049000000
H     8.006000000    -3.396000000     5.820000000
H     8.641000000    -2.025000000     5.924000000
O     2.953000000     2.473000000     7.967000000
H     2.218000000     2.978000000     7.621000000
H     3.148000000     1.833000000     7.283000000
O     3.942000000     1.026000000     5.971000000
H     4.716000000     0.597000000     6.335000000
H     3.636000000     0.430000000     5.288000000
O     6.581000000    -0.314000000     4.149000000
H     6.328000000    -0.535000000     5.045000000
H     5.811000000    -0.529000000     3.623000000
O     6.352000000    -2.899000000     2.896000000
H     5.970000000    -2.871000000     3.773000000
H     5.839000000    -2.269000000     2.390000000
O     6.742000000     2.614000000     1.694000000
H     6.143000000     2.775000000     2.423000000
H     7.595000000     2.485000000     2.108000000
O     9.555000000    -0.434000000     1.990000000
H     8.818000000    -1.038000000     2.081000000
H     9.520000000    -0.151000000     1.076000000
O     8.430000000     1.768000000     4.032000000
H     7.758000000     1.094000000     4.127000000
H     9.212000000     1.290000000     3.755000000
O     7.297000000     4.403000000    -0.470000000
H     6.787000000     3.816000000     0.088000000
H     8.205000000     4.132000000    -0.335000000
O     9.603000000    -2.968000000     3.190000000
H     9.939000000    -3.209000000     2.326000000
H     8.742000000    -3.382000000     3.236000000
O     4.646000000    -2.711000000     4.978000000
H     4.453000000    -3.565000000     5.365000000
H     3.886000000    -2.519000000     4.430000000
O     6.417000000     0.304000000    -1.715000000
H     6.218000000    -0.489000000    -1.217000000
H     5.790000000     0.952000000    -1.395000000
O     6.027000000    -1.868000000     0.097000000
H     6.426000000    -2.594000000     0.577000000
H     5.490000000    -1.417000000     0.748000000
O     4.832000000     1.590000000     0.099000000
H     5.614000000     1.831000000     0.597000000
H     4.335000000     1.027000000     0.692000000
O     5.129000000     4.611000000     5.695000000
H     5.348000000     5.193000000     4.967000000
H     4.907000000     3.779000000     5.277000000
