215
-1448.87267
C    -0.180000000    -3.566000000     3.534000000
H    -0.350000000    -4.303000000     2.753000000
C    -1.272000000    -2.687000000     3.756000000
C    -1.126000000    -1.785000000     4.749000000
H    -1.927000000    -1.063000000     4.879000000
C    -2.322000000    -2.537000000     2.648000000
O    -2.767000000    -3.685000000     1.956000000
H    -1.882000000    -1.844000000     1.915000000
O    -3.566000000    -1.912000000     3.152000000
C    -4.018000000    -0.879000000     2.396000000
C    -3.523000000     0.361000000     2.759000000
H    -3.048000000     0.350000000     3.736000000
C    -3.688000000     1.518000000     1.987000000
O    -3.120000000     2.682000000     2.400000000
C    -4.429000000     1.370000000     0.819000000
C    -4.735000000     2.611000000    -0.037000000
H    -5.690000000     2.477000000    -0.550000000
C    -3.527000000     2.881000000    -0.945000000
C    -3.598000000     2.441000000    -2.231000000
H    -4.488000000     1.862000000    -2.463000000
H    -4.932000000     3.501000000     0.565000000
C    -4.881000000     0.096000000     0.457000000
H    -5.433000000    -0.048000000    -0.469000000
C    -4.602000000    -1.057000000     1.188000000
C    -5.106000000    -2.423000000     0.719000000
H    -5.944000000    -2.396000000     0.019000000
H    -5.330000000    -3.017000000     1.607000000
C    -3.913000000    -2.995000000    -0.128000000
C    -3.928000000    -2.871000000    -1.484000000
H    -4.780000000    -2.411000000    -1.978000000
C    -2.868000000    -3.596000000     0.555000000
C    -1.885000000    -4.174000000    -0.199000000
H    -1.077000000    -4.713000000     0.290000000
C    -1.820000000    -4.053000000    -1.571000000
O    -0.671000000    -4.489000000    -2.180000000
C     0.301000000    -3.468000000    -2.572000000
C     1.767000000    -3.834000000    -2.312000000
C     2.857000000    -3.280000000    -2.959000000
H     2.787000000    -2.618000000    -3.819000000
C     2.013000000    -4.816000000    -1.350000000
H     1.210000000    -5.185000000    -0.718000000
O     0.158000000    -2.984000000    -3.951000000
H     0.062000000    -2.597000000    -1.944000000
C    -2.857000000    -3.410000000    -2.187000000
C    -2.774000000    -2.996000000    -3.650000000
H    -3.804000000    -2.801000000    -3.958000000
H    -2.386000000    -3.843000000    -4.219000000
C    -1.898000000    -1.760000000    -3.917000000
C    -2.589000000    -0.546000000    -3.986000000
H    -3.645000000    -0.524000000    -3.730000000
C    -0.514000000    -1.827000000    -4.216000000
C     0.154000000    -0.737000000    -4.592000000
H     1.226000000    -0.773000000    -4.771000000
C    -0.516000000     0.488000000    -4.644000000
O     0.232000000     1.601000000    -4.826000000
C     0.413000000     2.339000000    -3.678000000
C     1.922000000     2.700000000    -3.477000000
C     2.959000000     1.889000000    -3.996000000
H     2.684000000     0.939000000    -4.448000000
C     2.309000000     3.836000000    -2.756000000
H     1.554000000     4.464000000    -2.289000000
O    -0.425000000     3.474000000    -3.634000000
H     0.135000000     1.787000000    -2.767000000
C    -1.895000000     0.599000000    -4.369000000
C    -2.600000000     1.964000000    -4.513000000
H    -3.627000000     1.849000000    -4.866000000
H    -2.114000000     2.597000000    -5.259000000
C    -2.610000000     2.631000000    -3.133000000
C    -1.518000000     3.411000000    -2.814000000
C    -1.467000000     3.989000000    -1.526000000
H    -0.663000000     4.624000000    -1.164000000
C    -2.480000000     3.763000000    -0.597000000
O    -2.331000000     4.169000000     0.745000000
C    -1.946000000     3.255000000     1.755000000
H    -1.403000000     2.423000000     1.284000000
C    -0.993000000     3.864000000     2.780000000
C    -1.002000000     3.583000000     4.115000000
H    -1.824000000     2.983000000     4.498000000
C     0.063000000     4.616000000     2.286000000
H     0.126000000     4.761000000     1.211000000
C     1.041000000     5.148000000     3.147000000
O     2.171000000     5.778000000     2.653000000
C     0.972000000     4.879000000     4.537000000
H     1.720000000     5.273000000     5.220000000
C    -0.096000000     4.147000000     5.024000000
O    -0.008000000     3.674000000     6.374000000
C    -0.609000000     2.534000000     6.888000000
C    -0.013000000     1.325000000     6.636000000
H     0.931000000     1.308000000     6.097000000
C    -1.838000000     2.576000000     7.496000000
H    -2.354000000     3.479000000     7.811000000
C    -2.395000000     1.356000000     7.893000000
H    -3.338000000     1.340000000     8.433000000
C    -1.870000000     0.181000000     7.535000000
H    -2.395000000    -0.725000000     7.824000000
C    -0.608000000     0.114000000     6.924000000
O    -0.025000000    -1.101000000     6.748000000
C    -0.074000000    -1.851000000     5.612000000
C     1.030000000    -2.725000000     5.434000000
H     1.881000000    -2.779000000     6.108000000
C     0.965000000    -3.584000000     4.341000000
O     2.116000000    -4.317000000     4.043000000
C     2.122000000    -5.306000000     3.104000000
C     2.766000000    -5.212000000     1.893000000
H     3.451000000    -4.380000000     1.749000000
C     1.483000000    -6.481000000     3.488000000
H     1.053000000    -6.607000000     4.478000000
C     1.472000000    -7.561000000     2.581000000
H     1.005000000    -8.477000000     2.933000000
C     2.100000000    -7.438000000     1.365000000
H     2.012000000    -8.238000000     0.635000000
C     2.844000000    -6.313000000     1.044000000
O     3.582000000    -6.192000000    -0.133000000
C     3.335000000    -5.249000000    -1.072000000
C     4.399000000    -4.715000000    -1.791000000
H     5.407000000    -5.066000000    -1.582000000
C     4.143000000    -3.728000000    -2.733000000
O     5.162000000    -3.219000000    -3.568000000
C     5.088000000    -2.087000000    -4.382000000
C     5.101000000    -0.789000000    -3.888000000
H     5.128000000    -0.614000000    -2.815000000
C     5.077000000    -2.339000000    -5.776000000
H     5.031000000    -3.362000000    -6.139000000
C     4.954000000    -1.261000000    -6.646000000
H     4.707000000    -1.414000000    -7.693000000
C     5.070000000     0.022000000    -6.142000000
H     4.973000000     0.782000000    -6.913000000
C     5.190000000     0.271000000    -4.771000000
O     5.309000000     1.567000000    -4.327000000
C     4.276000000     2.279000000    -3.818000000
C     4.592000000     3.468000000    -3.136000000
H     5.631000000     3.746000000    -2.978000000
C     3.617000000     4.246000000    -2.586000000
O     3.939000000     5.399000000    -1.816000000
C     3.058000000     6.030000000    -0.915000000
C     2.174000000     6.989000000    -1.381000000
H     2.079000000     7.282000000    -2.423000000
C     1.222000000     7.459000000    -0.473000000
H     0.506000000     8.162000000    -0.892000000
C     1.309000000     7.272000000     0.894000000
H     0.574000000     7.770000000     1.522000000
C     2.244000000     6.346000000     1.345000000
C     3.117000000     5.696000000     0.483000000
H     3.823000000     4.973000000     0.883000000
C     2.374000000    -1.477000000     1.175000000
H     3.228000000    -2.048000000     0.820000000
C     1.413000000    -1.101000000     0.260000000
H     1.471000000    -1.273000000    -0.812000000
C     0.262000000    -0.420000000     0.670000000
H    -0.532000000    -0.098000000    -0.016000000
C     0.188000000     0.029000000     1.991000000
H    -0.562000000     0.737000000     2.334000000
C     1.192000000    -0.347000000     2.860000000
H     1.255000000     0.110000000     3.845000000
C     2.279000000    -1.122000000     2.501000000
C     3.447000000    -1.284000000     3.405000000
O     3.291000000    -0.961000000     4.541000000
O     4.577000000    -1.738000000     3.094000000
O     7.360000000    -6.034000000     5.678000000
H     6.547000000    -5.561000000     5.853000000
H     7.858000000    -5.966000000     6.492000000
O     4.743000000    -5.338000000     5.764000000
H     4.720000000    -6.224000000     5.403000000
H     3.943000000    -5.271000000     6.286000000
O     6.997000000     1.989000000     5.081000000
H     7.444000000     1.517000000     4.379000000
H     6.624000000     1.301000000     5.633000000
O     5.763000000    -0.078000000     7.296000000
H     4.888000000     0.235000000     7.525000000
H     5.622000000    -0.968000000     6.973000000
O     3.582000000     1.999000000     2.973000000
H     3.669000000     1.216000000     3.517000000
H     2.736000000     1.895000000     2.538000000
O     4.919000000    -3.684000000     8.526000000
H     5.326000000    -3.298000000     7.750000000
H     4.557000000    -4.515000000     8.219000000
O     7.249000000    -2.939000000     3.531000000
H     6.367000000    -2.586000000     3.409000000
H     7.666000000    -2.841000000     2.675000000
O     8.292000000    -1.195000000     5.447000000
H     7.343000000    -1.084000000     5.383000000
H     8.513000000    -1.783000000     4.725000000
O     2.599000000     3.462000000     7.853000000
H     2.641000000     2.673000000     7.313000000
H     3.442000000     3.893000000     7.715000000
O     3.208000000     0.823000000     6.731000000
H     2.879000000     0.109000000     7.277000000
H     3.344000000     0.424000000     5.871000000
O     6.671000000     0.015000000     2.735000000
H     5.764000000    -0.272000000     2.849000000
H     6.610000000     0.783000000     2.168000000
O     5.859000000    -2.438000000     0.903000000
H     5.324000000    -3.183000000     0.630000000
H     5.455000000    -2.139000000     1.717000000
O     5.746000000     2.828000000     1.306000000
H     5.035000000     3.029000000     1.915000000
H     6.528000000     3.192000000     1.722000000
O     9.377000000    -0.073000000     2.737000000
H     9.752000000     0.243000000     1.915000000
H     8.473000000    -0.298000000     2.516000000
O     3.091000000    -1.028000000     8.830000000
H     3.745000000    -1.651000000     9.147000000
H     2.263000000    -1.345000000     9.191000000
O     2.685000000    -5.041000000     7.688000000
H     2.398000000    -5.929000000     7.903000000
H     1.904000000    -4.502000000     7.810000000
O     5.309000000    -2.471000000     5.876000000
H     5.342000000    -3.242000000     5.310000000
H     4.768000000    -1.844000000     5.396000000
O     7.558000000    -1.039000000    -0.962000000
H     6.980000000    -1.603000000    -0.448000000
H     7.084000000    -0.209000000    -1.030000000
O     5.901000000     0.956000000    -0.734000000
H     5.840000000     1.692000000    -0.125000000
H     5.130000000     1.045000000    -1.295000000
