215
-1460.81369
C     0.059000000    -3.696000000     3.187000000
H     0.124000000    -4.177000000     2.214000000
C    -1.079000000    -2.957000000     3.606000000
C    -0.937000000    -2.161000000     4.718000000
H    -1.750000000    -1.491000000     4.986000000
C    -2.229000000    -2.673000000     2.598000000
O    -2.686000000    -3.805000000     1.928000000
H    -1.815000000    -2.086000000     1.765000000
O    -3.364000000    -2.054000000     3.251000000
C    -3.904000000    -1.001000000     2.591000000
C    -3.403000000     0.265000000     3.006000000
H    -2.758000000     0.316000000     3.880000000
C    -3.705000000     1.372000000     2.240000000
O    -3.052000000     2.493000000     2.658000000
C    -4.509000000     1.258000000     1.116000000
C    -4.833000000     2.564000000     0.299000000
H    -5.861000000     2.567000000    -0.071000000
C    -3.773000000     2.866000000    -0.703000000
C    -3.947000000     2.358000000    -1.974000000
H    -4.821000000     1.734000000    -2.142000000
H    -4.940000000     3.433000000     0.952000000
C    -5.003000000    -0.010000000     0.690000000
H    -5.591000000    -0.143000000    -0.214000000
C    -4.725000000    -1.129000000     1.459000000
C    -5.128000000    -2.504000000     0.882000000
H    -6.066000000    -2.375000000     0.339000000
H    -5.381000000    -3.120000000     1.747000000
C    -4.001000000    -3.050000000     0.000000000
C    -4.034000000    -2.932000000    -1.348000000
H    -4.861000000    -2.397000000    -1.806000000
C    -2.846000000    -3.672000000     0.568000000
C    -1.777000000    -4.072000000    -0.198000000
H    -0.905000000    -4.581000000     0.204000000
C    -1.848000000    -3.899000000    -1.549000000
O    -0.744000000    -4.199000000    -2.346000000
C     0.136000000    -3.112000000    -2.667000000
C     1.607000000    -3.518000000    -2.468000000
C     2.629000000    -2.552000000    -2.723000000
H     2.391000000    -1.576000000    -3.138000000
C     1.900000000    -4.749000000    -1.873000000
H     1.183000000    -5.500000000    -1.555000000
O    -0.084000000    -2.792000000    -4.058000000
H    -0.151000000    -2.253000000    -2.044000000
C    -2.962000000    -3.293000000    -2.178000000
C    -2.990000000    -2.912000000    -3.674000000
H    -4.048000000    -2.708000000    -3.856000000
H    -2.690000000    -3.701000000    -4.367000000
C    -2.230000000    -1.674000000    -4.024000000
C    -2.946000000    -0.461000000    -4.101000000
H    -4.004000000    -0.459000000    -3.851000000
C    -0.823000000    -1.655000000    -4.265000000
C    -0.170000000    -0.466000000    -4.580000000
H     0.917000000    -0.427000000    -4.585000000
C    -0.910000000     0.661000000    -4.736000000
O    -0.247000000     1.858000000    -4.865000000
C     0.107000000     2.504000000    -3.592000000
C     1.530000000     2.967000000    -3.596000000
C     2.426000000     2.316000000    -4.441000000
H     2.174000000     1.461000000    -5.063000000
C     1.946000000     4.066000000    -2.842000000
H     1.273000000     4.592000000    -2.170000000
O    -0.778000000     3.616000000    -3.514000000
H    -0.026000000     1.846000000    -2.720000000
C    -2.326000000     0.736000000    -4.420000000
C    -3.116000000     2.005000000    -4.354000000
H    -4.145000000     1.850000000    -4.685000000
H    -2.592000000     2.692000000    -5.021000000
C    -2.960000000     2.624000000    -2.944000000
C    -1.851000000     3.431000000    -2.616000000
C    -1.662000000     3.861000000    -1.338000000
H    -0.773000000     4.415000000    -1.050000000
C    -2.678000000     3.601000000    -0.373000000
O    -2.436000000     3.961000000     0.951000000
C    -1.966000000     2.943000000     1.850000000
H    -1.691000000     2.015000000     1.327000000
C    -0.790000000     3.363000000     2.791000000
C    -0.818000000     3.275000000     4.233000000
H    -1.739000000     2.938000000     4.702000000
C     0.361000000     3.897000000     2.204000000
H     0.426000000     3.921000000     1.119000000
C     1.363000000     4.373000000     3.075000000
O     2.575000000     4.815000000     2.641000000
C     1.428000000     4.098000000     4.411000000
H     2.314000000     4.417000000     4.954000000
C     0.286000000     3.647000000     5.039000000
O     0.320000000     3.402000000     6.356000000
C    -0.309000000     2.257000000     6.825000000
C     0.222000000     1.020000000     6.488000000
H     1.207000000     0.988000000     6.029000000
C    -1.506000000     2.360000000     7.549000000
H    -1.815000000     3.370000000     7.806000000
C    -2.101000000     1.242000000     8.063000000
H    -2.993000000     1.367000000     8.672000000
C    -1.504000000    -0.011000000     7.847000000
H    -2.003000000    -0.878000000     8.274000000
C    -0.379000000    -0.119000000     7.012000000
O     0.265000000    -1.384000000     6.747000000
C     0.152000000    -2.198000000     5.605000000
C     1.229000000    -2.970000000     5.252000000
H     2.104000000    -2.819000000     5.879000000
C     1.212000000    -3.689000000     4.059000000
O     2.255000000    -4.491000000     3.791000000
C     2.198000000    -5.430000000     2.750000000
C     2.761000000    -5.141000000     1.525000000
H     3.211000000    -4.158000000     1.413000000
C     1.597000000    -6.661000000     2.983000000
H     1.105000000    -6.917000000     3.918000000
C     1.552000000    -7.553000000     1.979000000
H     1.082000000    -8.530000000     2.060000000
C     2.172000000    -7.286000000     0.759000000
H     2.255000000    -8.045000000    -0.015000000
C     2.815000000    -6.112000000     0.522000000
O     3.461000000    -6.048000000    -0.653000000
C     3.210000000    -5.000000000    -1.507000000
C     4.258000000    -4.102000000    -1.929000000
H     5.288000000    -4.374000000    -1.711000000
C     4.018000000    -2.803000000    -2.483000000
O     5.015000000    -1.968000000    -2.906000000
C     4.901000000    -1.365000000    -4.108000000
C     4.906000000     0.004000000    -4.174000000
H     4.887000000     0.667000000    -3.312000000
C     4.759000000    -2.077000000    -5.295000000
H     4.619000000    -3.154000000    -5.270000000
C     4.597000000    -1.383000000    -6.480000000
H     4.237000000    -1.982000000    -7.313000000
C     4.698000000    -0.020000000    -6.486000000
H     4.709000000     0.546000000    -7.415000000
C     4.737000000     0.678000000    -5.311000000
O     4.618000000     2.059000000    -5.281000000
C     3.778000000     2.653000000    -4.383000000
C     4.153000000     3.752000000    -3.574000000
H     5.183000000     4.092000000    -3.644000000
C     3.284000000     4.429000000    -2.786000000
O     3.794000000     5.449000000    -2.065000000
C     3.312000000     5.868000000    -0.795000000
C     3.175000000     7.228000000    -0.656000000
H     3.502000000     7.945000000    -1.405000000
C     2.863000000     7.757000000     0.562000000
H     2.790000000     8.831000000     0.714000000
C     2.552000000     6.923000000     1.594000000
H     2.137000000     7.261000000     2.540000000
C     2.682000000     5.585000000     1.475000000
C     3.143000000     4.992000000     0.252000000
H     3.313000000     3.927000000     0.112000000
C     2.754000000    -0.599000000    -0.084000000
H     3.658000000    -0.670000000    -0.682000000
C     1.536000000    -0.189000000    -0.711000000
H     1.545000000     0.128000000    -1.750000000
C     0.348000000    -0.153000000     0.054000000
H    -0.568000000     0.242000000    -0.423000000
C     0.375000000    -0.494000000     1.405000000
H    -0.541000000    -0.411000000     1.983000000
C     1.578000000    -0.847000000     2.030000000
H     1.529000000    -1.024000000     3.101000000
C     2.800000000    -0.884000000     1.317000000
C     4.091000000    -1.230000000     2.047000000
O     4.070000000    -1.479000000     3.257000000
O     5.166000000    -1.120000000     1.457000000
O     4.691000000     1.749000000     3.948000000
H     4.561000000     0.925000000     4.419000000
H     4.321000000     1.589000000     3.080000000
O     6.961000000    -5.695000000     2.135000000
H     7.839000000    -5.319000000     2.069000000
H     6.491000000    -5.104000000     2.722000000
O     8.042000000    -0.694000000     6.497000000
H     8.556000000    -0.304000000     7.203000000
H     7.177000000    -0.292000000     6.580000000
O     4.074000000    -0.516000000     5.815000000
H     4.130000000    -0.919000000     4.949000000
H     4.490000000    -1.149000000     6.401000000
O     7.080000000    -1.786000000     3.210000000
H     6.333000000    -2.105000000     3.717000000
H     6.693000000    -1.450000000     2.401000000
O     9.559000000    -2.858000000     4.094000000
H     8.674000000    -2.510000000     4.209000000
H     9.578000000    -3.168000000     3.189000000
O     3.180000000     2.006000000     1.830000000
H     2.439000000     1.463000000     1.562000000
H     2.797000000     2.667000000     2.406000000
O     9.106000000    -2.406000000     0.719000000
H     8.205000000    -2.601000000     0.461000000
H     9.644000000    -2.907000000     0.106000000
O     4.668000000    -4.643000000     6.862000000
H     4.587000000    -5.591000000     6.970000000
H     4.856000000    -4.523000000     5.931000000
O     8.714000000    -0.639000000    -1.950000000
H     8.710000000    -1.104000000    -2.787000000
H     8.097000000    -1.125000000    -1.403000000
O     8.361000000     0.893000000     3.248000000
H     7.769000000     0.152000000     3.375000000
H     8.921000000     0.629000000     2.518000000
O     6.758000000     3.888000000     0.747000000
H     6.339000000     3.038000000     0.617000000
H     7.676000000     3.678000000     0.921000000
O    10.593000000    -0.433000000     1.740000000
H     9.909000000    -0.999000000     1.381000000
H    10.965000000    -0.938000000     2.464000000
O     5.000000000    -7.718000000     2.390000000
H     4.164000000    -7.696000000     1.925000000
H     5.475000000    -6.952000000     2.067000000
O     4.999000000    -3.995000000     3.961000000
H     4.147000000    -4.411000000     3.835000000
H     4.827000000    -3.059000000     3.853000000
O     7.285000000     1.688000000    -2.302000000
H     7.782000000     0.896000000    -2.508000000
H     6.720000000     1.433000000    -1.572000000
O     6.484000000    -2.103000000    -0.637000000
H     5.988000000    -1.945000000     0.166000000
H     5.913000000    -1.787000000    -1.337000000
O     5.594000000     1.308000000     0.103000000
H     4.843000000     1.749000000     0.501000000
H     5.575000000     0.425000000     0.472000000
O     5.396000000     4.221000000     5.116000000
H     5.098000000     4.974000000     4.606000000
H     5.061000000     3.461000000     4.640000000
