215
-1463.13186
C    -1.771000000    -4.756000000     1.893000000
H    -1.984000000    -5.203000000     0.925000000
C    -2.342000000    -3.517000000     2.317000000
C    -1.997000000    -2.942000000     3.567000000
H    -2.385000000    -2.008000000     3.964000000
C    -3.176000000    -2.638000000     1.406000000
O    -3.781000000    -3.374000000     0.377000000
H    -2.443000000    -1.949000000     0.962000000
O    -4.121000000    -1.825000000     2.119000000
C    -4.188000000    -0.483000000     1.797000000
C    -3.532000000     0.412000000     2.622000000
H    -2.995000000     0.032000000     3.488000000
C    -3.495000000     1.795000000     2.290000000
O    -2.793000000     2.617000000     3.109000000
C    -4.155000000     2.246000000     1.121000000
C    -4.231000000     3.705000000     0.772000000
H    -5.113000000     3.882000000     0.153000000
C    -2.962000000     4.008000000    -0.060000000
C    -2.943000000     3.831000000    -1.418000000
H    -3.836000000     3.634000000    -2.006000000
H    -4.283000000     4.362000000     1.642000000
C    -4.802000000     1.285000000     0.433000000
H    -5.296000000     1.598000000    -0.483000000
C    -4.888000000    -0.064000000     0.690000000
C    -5.385000000    -1.138000000    -0.205000000
H    -6.105000000    -0.618000000    -0.841000000
H    -5.965000000    -1.990000000     0.155000000
C    -4.258000000    -1.656000000    -1.118000000
C    -4.088000000    -1.162000000    -2.431000000
H    -4.595000000    -0.245000000    -2.721000000
C    -3.548000000    -2.815000000    -0.788000000
C    -2.647000000    -3.445000000    -1.559000000
H    -2.142000000    -4.367000000    -1.283000000
C    -2.448000000    -2.923000000    -2.857000000
O    -1.246000000    -3.411000000    -3.439000000
C    -0.026000000    -2.542000000    -3.444000000
C     1.225000000    -3.295000000    -3.383000000
C     2.463000000    -2.679000000    -3.606000000
H     2.562000000    -1.620000000    -3.831000000
C     1.194000000    -4.613000000    -2.969000000
H     0.218000000    -5.005000000    -2.695000000
O    -0.042000000    -1.793000000    -4.619000000
H    -0.120000000    -1.866000000    -2.582000000
C    -3.140000000    -1.758000000    -3.294000000
C    -2.845000000    -1.198000000    -4.625000000
H    -3.682000000    -0.906000000    -5.262000000
H    -2.368000000    -1.968000000    -5.234000000
C    -1.777000000    -0.151000000    -4.491000000
C    -2.144000000     1.127000000    -4.127000000
H    -3.205000000     1.330000000    -4.006000000
C    -0.425000000    -0.495000000    -4.546000000
C     0.531000000     0.451000000    -4.329000000
H     1.572000000     0.174000000    -4.468000000
C     0.174000000     1.687000000    -3.929000000
O     1.231000000     2.546000000    -3.626000000
C     1.346000000     2.992000000    -2.215000000
C     2.854000000     3.102000000    -1.904000000
C     3.768000000     2.344000000    -2.571000000
H     3.346000000     1.508000000    -3.123000000
C     3.290000000     3.994000000    -0.990000000
H     2.495000000     4.550000000    -0.499000000
O     0.626000000     4.207000000    -2.066000000
H     0.984000000     2.243000000    -1.496000000
C    -1.167000000     2.084000000    -3.840000000
C    -1.665000000     3.479000000    -3.667000000
H    -2.646000000     3.696000000    -4.094000000
H    -0.929000000     4.156000000    -4.107000000
C    -1.765000000     3.872000000    -2.201000000
C    -0.593000000     4.271000000    -1.500000000
C    -0.603000000     4.619000000    -0.124000000
H     0.255000000     5.058000000     0.379000000
C    -1.769000000     4.430000000     0.625000000
O    -1.646000000     4.468000000     2.030000000
C    -1.570000000     3.170000000     2.649000000
H    -1.009000000     2.502000000     1.980000000
C    -0.584000000     3.271000000     3.791000000
C    -0.700000000     2.439000000     4.885000000
H    -1.593000000     1.820000000     4.927000000
C     0.617000000     4.010000000     3.637000000
H     0.894000000     4.502000000     2.708000000
C     1.612000000     3.960000000     4.602000000
O     2.838000000     4.542000000     4.448000000
C     1.417000000     3.162000000     5.729000000
H     2.220000000     3.120000000     6.461000000
C     0.316000000     2.317000000     5.877000000
O     0.116000000     1.426000000     6.865000000
C    -0.565000000     0.259000000     6.878000000
C    -0.196000000    -0.841000000     6.047000000
H     0.657000000    -0.756000000     5.379000000
C    -1.565000000     0.029000000     7.857000000
H    -1.736000000     0.847000000     8.553000000
C    -2.170000000    -1.234000000     7.910000000
H    -2.892000000    -1.428000000     8.699000000
C    -1.890000000    -2.260000000     7.044000000
H    -2.467000000    -3.181000000     7.075000000
C    -0.829000000    -2.110000000     6.187000000
O    -0.462000000    -3.252000000     5.512000000
C    -1.021000000    -3.652000000     4.333000000
C    -0.404000000    -4.772000000     3.877000000
H     0.349000000    -5.244000000     4.502000000
C    -0.743000000    -5.346000000     2.684000000
O     0.042000000    -6.329000000     2.193000000
C     0.051000000    -6.866000000     0.916000000
C     1.003000000    -6.354000000     0.005000000
H     1.577000000    -5.482000000     0.309000000
C    -0.701000000    -7.966000000     0.528000000
H    -1.487000000    -8.306000000     1.197000000
C    -0.622000000    -8.587000000    -0.712000000
H    -1.165000000    -9.504000000    -0.923000000
C     0.389000000    -8.162000000    -1.575000000
H     0.548000000    -8.648000000    -2.534000000
C     1.193000000    -6.997000000    -1.258000000
O     2.213000000    -6.611000000    -2.131000000
C     2.357000000    -5.355000000    -2.776000000
C     3.649000000    -4.822000000    -3.046000000
H     4.505000000    -5.476000000    -2.897000000
C     3.643000000    -3.496000000    -3.543000000
O     4.875000000    -2.909000000    -3.830000000
C     5.121000000    -1.593000000    -4.280000000
C     5.597000000    -0.652000000    -3.403000000
H     5.825000000    -0.916000000    -2.373000000
C     4.749000000    -1.190000000    -5.616000000
H     4.371000000    -1.954000000    -6.290000000
C     4.737000000     0.112000000    -5.987000000
H     4.348000000     0.443000000    -6.946000000
C     5.238000000     1.080000000    -5.105000000
H     5.267000000     2.126000000    -5.401000000
C     5.674000000     0.675000000    -3.808000000
O     6.042000000     1.633000000    -2.923000000
C     5.145000000     2.457000000    -2.298000000
C     5.597000000     3.367000000    -1.394000000
H     6.669000000     3.378000000    -1.215000000
C     4.695000000     4.143000000    -0.704000000
O     5.029000000     5.100000000     0.250000000
C     4.169000000     5.604000000     1.192000000
C     3.575000000     6.857000000     1.094000000
H     3.699000000     7.340000000     0.128000000
C     2.891000000     7.352000000     2.227000000
H     2.490000000     8.358000000     2.139000000
C     2.806000000     6.599000000     3.375000000
H     2.229000000     6.965000000     4.221000000
C     3.261000000     5.302000000     3.384000000
C     3.996000000     4.785000000     2.306000000
H     4.394000000     3.774000000     2.286000000
C     1.830000000    -1.672000000    -0.044000000
H     2.725000000    -2.047000000    -0.534000000
C     0.943000000    -0.789000000    -0.624000000
H     1.104000000    -0.469000000    -1.650000000
C    -0.183000000    -0.283000000     0.018000000
H    -0.826000000     0.404000000    -0.422000000
C    -0.384000000    -0.592000000     1.381000000
H    -1.169000000    -0.150000000     1.989000000
C     0.525000000    -1.500000000     1.965000000
H     0.391000000    -1.724000000     3.020000000
C     1.591000000    -2.114000000     1.265000000
C     2.547000000    -2.997000000     1.942000000
O     2.684000000    -3.036000000     3.141000000
O     3.433000000    -3.573000000     1.346000000
O     5.175000000    -2.256000000    -0.146000000
H     5.944000000    -2.419000000     0.399000000
H     4.503000000    -2.841000000     0.207000000
O     3.968000000     1.260000000     4.210000000
H     3.817000000     0.398000000     4.598000000
H     3.251000000     1.371000000     3.585000000
O     4.136000000    -6.088000000     1.238000000
H     3.736000000    -6.494000000     2.007000000
H     3.866000000    -5.171000000     1.283000000
O     2.544000000    -0.353000000     7.969000000
H     2.421000000    -0.188000000     7.034000000
H     2.876000000     0.475000000     8.316000000
O     6.923000000    -4.623000000     6.363000000
H     6.138000000    -4.612000000     5.814000000
H     7.568000000    -4.117000000     5.870000000
O     6.201000000    -1.468000000     6.099000000
H     6.258000000    -2.010000000     6.886000000
H     7.078000000    -1.507000000     5.716000000
O     4.987000000    -7.560000000    -0.818000000
H     4.599000000    -6.941000000    -0.201000000
H     4.575000000    -8.398000000    -0.609000000
O     8.138000000    -3.164000000     1.195000000
H     7.659000000    -3.896000000     0.807000000
H     8.996000000    -3.528000000     1.413000000
O     3.004000000     1.066000000     1.675000000
H     2.342000000     0.394000000     1.513000000
H     3.775000000     0.762000000     1.196000000
O     2.606000000    -3.087000000     7.736000000
H     1.714000000    -3.375000000     7.929000000
H     2.569000000    -2.133000000     7.797000000
O     5.281000000     0.377000000     0.222000000
H     5.319000000    -0.572000000     0.103000000
H     4.802000000     0.695000000    -0.543000000
O     1.715000000    -9.364000000     3.190000000
H     1.943000000    -8.712000000     2.527000000
H     1.661000000    -8.868000000     4.006000000
O     3.198000000    -6.893000000     4.177000000
H     2.842000000    -6.083000000     4.543000000
H     4.053000000    -6.990000000     4.598000000
O     5.328000000    -3.743000000     3.735000000
H     5.942000000    -3.932000000     3.025000000
H     4.520000000    -3.488000000     3.290000000
O     6.731000000    -5.259000000     0.377000000
H     5.827000000    -5.388000000     0.664000000
H     7.097000000    -6.143000000     0.336000000
O     2.717000000    -4.581000000     5.306000000
H     3.166000000    -4.051000000     5.964000000
H     2.607000000    -3.992000000     4.558000000
O     3.846000000    -6.366000000     7.291000000
H     4.576000000    -6.785000000     6.835000000
H     3.386000000    -5.878000000     6.609000000
O     3.637000000    -1.374000000     5.135000000
H     4.514000000    -1.631000000     5.421000000
H     3.385000000    -2.047000000     4.503000000
O     6.218000000     1.788000000     2.564000000
H     5.393000000     1.586000000     3.005000000
H     6.222000000     1.222000000     1.792000000
