215
-1457.40967
C    -1.927000000    -4.298000000     2.406000000
H    -1.968000000    -4.774000000     1.429000000
C    -2.613000000    -3.053000000     2.615000000
C    -2.590000000    -2.478000000     3.820000000
H    -3.057000000    -1.539000000     4.109000000
C    -3.368000000    -2.396000000     1.513000000
O    -3.852000000    -3.271000000     0.506000000
H    -2.658000000    -1.782000000     0.940000000
O    -4.465000000    -1.495000000     1.933000000
C    -4.493000000    -0.265000000     1.306000000
C    -4.123000000     0.748000000     2.166000000
H    -3.948000000     0.524000000     3.215000000
C    -3.958000000     2.045000000     1.620000000
O    -3.341000000     2.960000000     2.436000000
C    -4.268000000     2.252000000     0.286000000
C    -4.187000000     3.576000000    -0.287000000
H    -4.977000000     3.621000000    -1.040000000
C    -2.848000000     3.857000000    -0.948000000
C    -2.645000000     3.547000000    -2.315000000
H    -3.474000000     3.356000000    -2.991000000
H    -4.599000000     4.333000000     0.384000000
C    -4.718000000     1.210000000    -0.514000000
H    -4.890000000     1.519000000    -1.542000000
C    -4.944000000    -0.039000000    -0.043000000
C    -5.353000000    -1.234000000    -0.914000000
H    -6.144000000    -0.943000000    -1.608000000
H    -5.923000000    -1.901000000    -0.264000000
C    -4.252000000    -2.011000000    -1.557000000
C    -3.870000000    -1.679000000    -2.829000000
H    -4.403000000    -0.858000000    -3.301000000
C    -3.495000000    -2.967000000    -0.846000000
C    -2.399000000    -3.580000000    -1.405000000
H    -1.757000000    -4.297000000    -0.900000000
C    -1.976000000    -3.254000000    -2.697000000
O    -0.761000000    -3.758000000    -3.198000000
C     0.403000000    -2.867000000    -3.121000000
C     1.650000000    -3.481000000    -2.551000000
C     2.871000000    -3.069000000    -2.993000000
H     2.992000000    -2.243000000    -3.689000000
C     1.540000000    -4.481000000    -1.556000000
H     0.552000000    -4.827000000    -1.264000000
O     0.615000000    -2.270000000    -4.421000000
H     0.116000000    -2.124000000    -2.363000000
C    -2.705000000    -2.222000000    -3.358000000
C    -2.351000000    -1.594000000    -4.758000000
H    -3.225000000    -1.259000000    -5.321000000
H    -2.079000000    -2.374000000    -5.473000000
C    -1.259000000    -0.561000000    -4.648000000
C    -1.625000000     0.803000000    -4.499000000
H    -2.678000000     1.070000000    -4.543000000
C     0.095000000    -0.937000000    -4.544000000
C     1.018000000     0.080000000    -4.276000000
H     2.071000000    -0.170000000    -4.174000000
C     0.625000000     1.439000000    -4.304000000
O     1.645000000     2.378000000    -3.980000000
C     1.745000000     2.678000000    -2.617000000
C     3.164000000     2.776000000    -2.197000000
C     4.111000000     1.896000000    -2.706000000
H     3.780000000     1.079000000    -3.342000000
C     3.514000000     3.831000000    -1.302000000
H     2.725000000     4.420000000    -0.842000000
O     1.059000000     3.928000000    -2.521000000
H     1.299000000     1.867000000    -2.022000000
C    -0.675000000     1.821000000    -4.320000000
C    -1.103000000     3.309000000    -4.255000000
H    -1.989000000     3.391000000    -4.888000000
H    -0.468000000     4.027000000    -4.776000000
C    -1.361000000     3.628000000    -2.839000000
C    -0.267000000     4.084000000    -2.084000000
C    -0.576000000     4.508000000    -0.746000000
H     0.231000000     4.819000000    -0.088000000
C    -1.815000000     4.339000000    -0.145000000
O    -1.957000000     4.432000000     1.228000000
C    -2.001000000     3.246000000     2.025000000
H    -1.667000000     2.478000000     1.312000000
C    -0.938000000     3.270000000     3.166000000
C    -1.281000000     2.636000000     4.328000000
H    -2.271000000     2.207000000     4.457000000
C     0.370000000     3.659000000     2.999000000
H     0.544000000     4.194000000     2.069000000
C     1.263000000     3.692000000     4.065000000
O     2.539000000     4.174000000     3.891000000
C     0.913000000     3.108000000     5.247000000
H     1.627000000     3.051000000     6.064000000
C    -0.376000000     2.575000000     5.415000000
O    -0.818000000     2.169000000     6.645000000
C    -1.719000000     1.179000000     6.688000000
C    -1.335000000    -0.058000000     6.223000000
H    -0.313000000    -0.254000000     5.906000000
C    -3.017000000     1.340000000     7.219000000
H    -3.420000000     2.329000000     7.425000000
C    -3.841000000     0.253000000     7.328000000
H    -4.880000000     0.350000000     7.631000000
C    -3.404000000    -0.982000000     6.963000000
H    -4.132000000    -1.786000000     6.885000000
C    -2.142000000    -1.171000000     6.417000000
O    -1.644000000    -2.420000000     6.095000000
C    -1.747000000    -3.039000000     4.804000000
C    -1.246000000    -4.313000000     4.654000000
H    -0.852000000    -4.896000000     5.482000000
C    -1.268000000    -4.924000000     3.441000000
O    -0.688000000    -6.137000000     3.317000000
C    -0.079000000    -6.613000000     2.206000000
C     0.990000000    -5.926000000     1.627000000
H     1.303000000    -4.992000000     2.086000000
C    -0.565000000    -7.813000000     1.642000000
H    -1.457000000    -8.329000000     1.988000000
C     0.094000000    -8.338000000     0.580000000
H    -0.221000000    -9.290000000     0.159000000
C     1.227000000    -7.740000000     0.011000000
H     1.824000000    -8.169000000    -0.789000000
C     1.696000000    -6.479000000     0.533000000
O     2.790000000    -5.883000000    -0.016000000
C     2.723000000    -4.990000000    -1.036000000
C     3.954000000    -4.615000000    -1.503000000
H     4.826000000    -5.180000000    -1.182000000
C     4.023000000    -3.708000000    -2.512000000
O     5.304000000    -3.349000000    -2.952000000
C     5.570000000    -2.153000000    -3.631000000
C     5.976000000    -1.010000000    -2.916000000
H     5.969000000    -1.008000000    -1.830000000
C     5.192000000    -2.033000000    -4.988000000
H     4.810000000    -2.878000000    -5.555000000
C     5.365000000    -0.805000000    -5.592000000
H     5.206000000    -0.817000000    -6.667000000
C     5.935000000     0.291000000    -4.960000000
H     6.116000000     1.232000000    -5.473000000
C     6.135000000     0.222000000    -3.621000000
O     6.388000000     1.300000000    -2.916000000
C     5.433000000     2.000000000    -2.291000000
C     5.739000000     3.090000000    -1.487000000
H     6.775000000     3.382000000    -1.331000000
C     4.812000000     3.951000000    -0.842000000
O     5.152000000     5.071000000    -0.095000000
C     4.389000000     5.448000000     1.007000000
C     4.123000000     6.789000000     1.029000000
H     4.607000000     7.514000000     0.379000000
C     3.332000000     7.257000000     2.064000000
H     3.166000000     8.321000000     2.211000000
C     2.791000000     6.424000000     3.005000000
H     2.126000000     6.922000000     3.706000000
C     2.939000000     5.054000000     2.899000000
C     3.785000000     4.567000000     1.898000000
H     4.042000000     3.513000000     1.818000000
C     1.941000000    -1.448000000     0.505000000
H     2.785000000    -1.986000000     0.081000000
C     1.108000000    -0.750000000    -0.322000000
H     1.384000000    -0.645000000    -1.368000000
C    -0.176000000    -0.393000000     0.127000000
H    -0.889000000    -0.125000000    -0.610000000
C    -0.475000000    -0.454000000     1.480000000
H    -1.405000000    -0.073000000     1.893000000
C     0.405000000    -1.083000000     2.296000000
H     0.214000000    -1.105000000     3.366000000
C     1.610000000    -1.648000000     1.806000000
C     2.559000000    -2.358000000     2.683000000
O     2.245000000    -2.344000000     3.843000000
O     3.683000000    -2.745000000     2.386000000
O     5.436000000    -1.839000000     0.775000000
H     6.033000000    -2.328000000     0.208000000
H     4.804000000    -2.492000000     1.076000000
O     0.819000000    -4.037000000     7.717000000
H     0.531000000    -4.947000000     7.785000000
H     0.010000000    -3.537000000     7.605000000
O     4.847000000    -5.190000000     1.921000000
H     4.095000000    -5.780000000     1.969000000
H     4.499000000    -4.336000000     2.176000000
O     6.699000000    -4.518000000     3.870000000
H     6.192000000    -5.027000000     3.237000000
H     6.106000000    -3.818000000     4.144000000
O     1.931000000    -1.154000000     6.151000000
H     2.704000000    -0.656000000     6.418000000
H     2.105000000    -1.398000000     5.242000000
O     4.993000000    -1.184000000     7.108000000
H     4.995000000    -0.479000000     6.460000000
H     4.852000000    -1.980000000     6.596000000
O     5.559000000    -0.713000000     3.536000000
H     4.832000000    -0.166000000     3.235000000
H     5.439000000    -1.544000000     3.076000000
O     7.160000000    -5.842000000     0.303000000
H     6.435000000    -5.422000000     0.766000000
H     6.875000000    -6.747000000     0.183000000
O     2.604000000     0.908000000     3.343000000
H     3.099000000     0.921000000     2.524000000
H     1.789000000     0.458000000     3.123000000
O     7.058000000     0.418000000     0.639000000
H     7.691000000     0.176000000     1.314000000
H     6.561000000    -0.384000000     0.478000000
O     3.351000000    -3.532000000     7.969000000
H     2.467000000    -3.691000000     7.638000000
H     3.264000000    -2.751000000     8.517000000
O     0.569000000    -1.028000000     8.560000000
H     1.467000000    -0.715000000     8.670000000
H     0.491000000    -1.209000000     7.623000000
O     4.423000000     0.788000000     1.229000000
H     5.235000000     0.994000000     0.767000000
H     4.345000000    -0.163000000     1.165000000
O     4.031000000    -8.655000000     2.737000000
H     3.628000000    -8.089000000     3.395000000
H     4.767000000    -9.065000000     3.192000000
O     2.696000000    -7.124000000     4.543000000
H     2.106000000    -6.396000000     4.739000000
H     3.196000000    -7.251000000     5.349000000
O     4.563000000    -3.270000000     5.091000000
H     4.036000000    -2.690000000     4.542000000
H     3.928000000    -3.865000000     5.490000000
O     7.891000000    -0.569000000     5.511000000
H     7.541000000    -1.254000000     6.081000000
H     7.398000000    -0.661000000     4.695000000
O     2.067000000    -4.614000000     5.180000000
H     1.331000000    -4.603000000     5.792000000
H     1.904000000    -3.873000000     4.596000000
O     4.020000000     1.334000000     5.619000000
H     3.371000000     1.342000000     4.917000000
H     4.864000000     1.343000000     5.166000000
