215
-1457.90022
C     0.077000000    -3.893000000     3.182000000
H     0.557000000    -3.958000000     2.210000000
C    -1.242000000    -3.502000000     3.304000000
C    -1.758000000    -3.243000000     4.613000000
H    -2.796000000    -2.950000000     4.742000000
C    -2.144000000    -3.484000000     2.026000000
O    -1.833000000    -4.634000000     1.106000000
H    -1.762000000    -2.639000000     1.434000000
O    -3.601000000    -3.423000000     2.177000000
C    -4.227000000    -2.416000000     1.461000000
C    -4.180000000    -1.115000000     2.026000000
H    -3.929000000    -0.935000000     3.068000000
C    -4.434000000    -0.040000000     1.225000000
O    -4.285000000     1.248000000     1.763000000
C    -4.848000000    -0.154000000    -0.057000000
C    -5.266000000     1.107000000    -0.836000000
H    -5.964000000     0.778000000    -1.609000000
C    -4.084000000     1.807000000    -1.544000000
C    -3.878000000     1.524000000    -2.870000000
H    -4.541000000     0.898000000    -3.462000000
H    -5.906000000     1.815000000    -0.306000000
C    -4.837000000    -1.418000000    -0.675000000
H    -4.950000000    -1.475000000    -1.754000000
C    -4.403000000    -2.511000000     0.059000000
C    -4.155000000    -3.862000000    -0.532000000
H    -4.900000000    -4.102000000    -1.293000000
H    -4.293000000    -4.695000000     0.161000000
C    -2.739000000    -3.931000000    -1.072000000
C    -2.455000000    -3.864000000    -2.403000000
H    -3.269000000    -3.687000000    -3.102000000
C    -1.685000000    -4.371000000    -0.269000000
C    -0.309000000    -4.476000000    -0.750000000
H     0.561000000    -4.518000000    -0.099000000
C    -0.147000000    -3.902000000    -2.008000000
O     1.194000000    -3.734000000    -2.388000000
C     1.784000000    -2.469000000    -2.514000000
C     3.241000000    -2.448000000    -2.059000000
C     4.202000000    -1.582000000    -2.522000000
H     3.940000000    -0.908000000    -3.334000000
C     3.687000000    -3.249000000    -0.963000000
H     2.963000000    -3.970000000    -0.594000000
O     1.738000000    -2.082000000    -3.888000000
H     1.183000000    -1.776000000    -1.907000000
C    -1.155000000    -3.692000000    -2.881000000
C    -0.948000000    -3.193000000    -4.307000000
H    -1.897000000    -3.383000000    -4.814000000
H    -0.220000000    -3.757000000    -4.893000000
C    -0.624000000    -1.694000000    -4.437000000
C    -1.636000000    -0.725000000    -4.702000000
H    -2.650000000    -1.097000000    -4.820000000
C     0.666000000    -1.250000000    -4.263000000
C     0.976000000     0.062000000    -4.462000000
H     2.010000000     0.392000000    -4.404000000
C     0.000000000     0.996000000    -4.746000000
O     0.416000000     2.303000000    -4.745000000
C     0.259000000     2.993000000    -3.499000000
C     1.467000000     3.993000000    -3.202000000
C     2.824000000     3.523000000    -3.359000000
H     2.930000000     2.584000000    -3.896000000
C     1.222000000     5.200000000    -2.500000000
H     0.218000000     5.477000000    -2.193000000
O    -0.968000000     3.751000000    -3.462000000
H     0.268000000     2.301000000    -2.644000000
C    -1.345000000     0.631000000    -4.788000000
C    -2.421000000     1.725000000    -4.899000000
H    -3.275000000     1.327000000    -5.452000000
H    -2.037000000     2.519000000    -5.543000000
C    -2.806000000     2.166000000    -3.546000000
C    -2.043000000     3.129000000    -2.900000000
C    -2.365000000     3.491000000    -1.640000000
H    -1.760000000     4.243000000    -1.139000000
C    -3.349000000     2.824000000    -0.935000000
O    -3.474000000     3.056000000     0.409000000
C    -3.131000000     1.983000000     1.339000000
H    -2.554000000     1.271000000     0.731000000
C    -2.229000000     2.452000000     2.482000000
C    -2.417000000     1.984000000     3.753000000
H    -3.299000000     1.428000000     4.062000000
C    -1.175000000     3.335000000     2.229000000
H    -1.028000000     3.852000000     1.284000000
C    -0.303000000     3.809000000     3.248000000
O     0.587000000     4.858000000     3.011000000
C    -0.511000000     3.320000000     4.579000000
H     0.129000000     3.737000000     5.353000000
C    -1.553000000     2.360000000     4.784000000
O    -1.804000000     1.962000000     6.182000000
C    -2.238000000     0.731000000     6.655000000
C    -1.506000000    -0.440000000     6.471000000
H    -0.565000000    -0.433000000     5.927000000
C    -3.443000000     0.639000000     7.361000000
H    -3.892000000     1.610000000     7.553000000
C    -3.911000000    -0.468000000     7.961000000
H    -4.738000000    -0.431000000     8.665000000
C    -3.122000000    -1.609000000     7.884000000
H    -3.482000000    -2.560000000     8.268000000
C    -2.020000000    -1.612000000     7.054000000
O    -1.313000000    -2.798000000     6.928000000
C    -0.912000000    -3.249000000     5.681000000
C     0.409000000    -3.614000000     5.538000000
H     1.071000000    -3.636000000     6.400000000
C     0.873000000    -4.016000000     4.282000000
O     2.230000000    -4.188000000     4.169000000
C     2.771000000    -4.788000000     3.141000000
C     3.589000000    -4.121000000     2.227000000
H     3.544000000    -3.037000000     2.291000000
C     2.579000000    -6.201000000     2.980000000
H     1.971000000    -6.766000000     3.682000000
C     3.213000000    -6.822000000     1.984000000
H     3.148000000    -7.907000000     1.949000000
C     4.160000000    -6.191000000     1.140000000
H     4.795000000    -6.760000000     0.467000000
C     4.362000000    -4.819000000     1.345000000
O     5.291000000    -4.115000000     0.655000000
C     4.909000000    -3.184000000    -0.308000000
C     5.807000000    -2.240000000    -0.760000000
H     6.792000000    -2.103000000    -0.323000000
C     5.419000000    -1.401000000    -1.768000000
O     6.277000000    -0.422000000    -2.257000000
C     6.002000000     0.499000000    -3.192000000
C     5.659000000     1.823000000    -2.838000000
H     5.427000000     1.982000000    -1.788000000
C     6.314000000     0.283000000    -4.545000000
H     6.612000000    -0.715000000    -4.857000000
C     6.224000000     1.274000000    -5.509000000
H     6.525000000     1.164000000    -6.548000000
C     5.834000000     2.517000000    -5.141000000
H     5.716000000     3.270000000    -5.917000000
C     5.588000000     2.814000000    -3.817000000
O     5.160000000     4.038000000    -3.396000000
C     3.871000000     4.327000000    -2.934000000
C     3.663000000     5.522000000    -2.224000000
H     4.471000000     6.061000000    -1.737000000
C     2.333000000     5.939000000    -1.927000000
O     2.066000000     6.995000000    -1.078000000
C     1.200000000     6.799000000     0.020000000
C     0.196000000     7.740000000     0.080000000
H     0.204000000     8.558000000    -0.636000000
C    -0.771000000     7.696000000     1.072000000
H    -1.554000000     8.448000000     1.021000000
C    -0.642000000     6.706000000     2.040000000
H    -1.443000000     6.557000000     2.760000000
C     0.429000000     5.763000000     1.958000000
C     1.359000000     5.772000000     0.928000000
H     2.192000000     5.085000000     0.805000000
C     3.186000000    -0.475000000     1.358000000
H     4.211000000    -0.253000000     1.073000000
C     2.170000000    -0.306000000     0.456000000
H     2.450000000     0.060000000    -0.529000000
C     0.828000000    -0.317000000     0.739000000
H     0.118000000     0.010000000    -0.020000000
C     0.468000000    -0.565000000     2.023000000
H    -0.529000000    -0.536000000     2.455000000
C     1.438000000    -0.706000000     3.029000000
H     1.089000000    -0.876000000     4.045000000
C     2.824000000    -0.732000000     2.698000000
C     3.877000000    -0.779000000     3.790000000
O     3.681000000    -0.801000000     4.970000000
O     5.015000000    -0.917000000     3.406000000
O     2.625000000     2.934000000     2.208000000
H     2.176000000     2.089000000     2.223000000
H     2.036000000     3.526000000     2.677000000
O     2.874000000     0.631000000     8.430000000
H     3.527000000     0.214000000     8.991000000
H     2.540000000    -0.079000000     7.882000000
O     4.193000000     5.236000000     3.105000000
H     3.834000000     4.481000000     2.638000000
H     4.294000000     4.933000000     4.007000000
O     9.242000000    -3.881000000     4.471000000
H     9.162000000    -2.955000000     4.699000000
H     8.389000000    -4.111000000     4.103000000
O     2.893000000     1.562000000     5.858000000
H     3.145000000     0.720000000     5.479000000
H     2.931000000     1.420000000     6.804000000
O     6.810000000    -5.567000000     4.556000000
H     6.234000000    -4.803000000     4.562000000
H     7.141000000    -5.624000000     5.452000000
O     3.139000000    -3.494000000     8.618000000
H     3.216000000    -3.687000000     9.553000000
H     3.989000000    -3.124000000     8.380000000
O     3.934000000     4.277000000     5.770000000
H     3.342000000     4.854000000     6.253000000
H     3.527000000     3.412000000     5.831000000
O    10.019000000     0.350000000     2.081000000
H     9.607000000     0.582000000     1.249000000
H     9.298000000     0.037000000     2.627000000
O     5.915000000    -2.600000000     7.661000000
H     5.780000000    -3.090000000     6.850000000
H     5.906000000    -1.682000000     7.389000000
O     7.962000000     2.279000000     3.751000000
H     7.478000000     1.779000000     3.093000000
H     7.303000000     2.519000000     4.402000000
O     8.281000000    -1.345000000     5.408000000
H     7.516000000    -0.770000000     5.373000000
H     8.533000000    -1.353000000     6.331000000
O     6.401000000     0.567000000     1.733000000
H     6.911000000    -0.191000000     1.444000000
H     5.798000000     0.214000000     2.387000000
O     5.053000000     2.672000000     0.856000000
H     5.436000000     1.852000000     1.168000000
H     4.166000000     2.674000000     1.214000000
O     6.019000000    -0.163000000     6.367000000
H     6.146000000     0.765000000     6.167000000
H     5.319000000    -0.442000000     5.777000000
O     7.150000000    -2.376000000     2.103000000
H     7.291000000    -2.013000000     2.977000000
H     6.200000000    -2.478000000     2.036000000
O     6.246000000     2.612000000     5.836000000
H     6.975000000     2.969000000     6.341000000
H     5.546000000     3.257000000     5.936000000
O     4.945000000    -3.381000000     5.012000000
H     4.096000000    -3.813000000     4.925000000
H     4.814000000    -2.514000000     4.627000000
O     2.013000000    -1.416000000     7.033000000
H     2.402000000    -1.428000000     6.158000000
H     2.220000000    -2.275000000     7.399000000
