215
-1464.47018
C    -0.647000000    -4.215000000     2.508000000
H    -0.700000000    -4.637000000     1.508000000
C    -1.618000000    -3.203000000     2.783000000
C    -1.658000000    -2.616000000     4.087000000
H    -2.264000000    -1.780000000     4.427000000
C    -2.615000000    -2.679000000     1.685000000
O    -3.107000000    -3.653000000     0.747000000
H    -1.999000000    -1.918000000     1.183000000
O    -3.749000000    -2.117000000     2.364000000
C    -4.205000000    -0.953000000     1.811000000
C    -3.745000000     0.170000000     2.517000000
H    -3.353000000     0.102000000     3.528000000
C    -3.795000000     1.388000000     1.911000000
O    -3.213000000     2.447000000     2.640000000
C    -4.417000000     1.595000000     0.674000000
C    -4.589000000     2.968000000    -0.029000000
H    -5.534000000     3.068000000    -0.567000000
C    -3.366000000     3.332000000    -0.803000000
C    -3.275000000     3.077000000    -2.138000000
H    -4.120000000     2.739000000    -2.731000000
H    -4.901000000     3.662000000     0.754000000
C    -4.914000000     0.494000000     0.045000000
H    -5.356000000     0.623000000    -0.939000000
C    -4.799000000    -0.734000000     0.600000000
C    -5.189000000    -1.969000000    -0.195000000
H    -6.047000000    -1.703000000    -0.816000000
H    -5.517000000    -2.776000000     0.462000000
C    -4.023000000    -2.488000000    -1.095000000
C    -3.899000000    -2.050000000    -2.393000000
H    -4.581000000    -1.292000000    -2.768000000
C    -3.095000000    -3.379000000    -0.600000000
C    -2.145000000    -3.942000000    -1.398000000
H    -1.534000000    -4.725000000    -0.957000000
C    -1.945000000    -3.452000000    -2.661000000
O    -0.797000000    -3.861000000    -3.318000000
C     0.248000000    -2.949000000    -3.523000000
C     1.522000000    -3.718000000    -3.261000000
C     2.758000000    -3.051000000    -3.453000000
H     2.775000000    -2.015000000    -3.784000000
C     1.539000000    -4.954000000    -2.552000000
H     0.630000000    -5.548000000    -2.494000000
O     0.211000000    -2.321000000    -4.859000000
H     0.157000000    -2.249000000    -2.680000000
C    -2.792000000    -2.482000000    -3.194000000
C    -2.659000000    -1.895000000    -4.614000000
H    -3.607000000    -1.424000000    -4.881000000
H    -2.356000000    -2.626000000    -5.366000000
C    -1.641000000    -0.812000000    -4.632000000
C    -2.068000000     0.503000000    -4.516000000
H    -3.121000000     0.741000000    -4.385000000
C    -0.276000000    -0.980000000    -4.775000000
C     0.636000000     0.062000000    -4.684000000
H     1.712000000    -0.097000000    -4.688000000
C     0.147000000     1.360000000    -4.550000000
O     0.967000000     2.385000000    -4.080000000
C     1.115000000     2.800000000    -2.690000000
C     2.581000000     3.058000000    -2.139000000
C     3.608000000     2.362000000    -2.773000000
H     3.445000000     1.737000000    -3.647000000
C     2.783000000     3.830000000    -0.974000000
H     1.965000000     4.465000000    -0.646000000
O     0.322000000     3.996000000    -2.632000000
H     0.635000000     2.011000000    -2.093000000
C    -1.237000000     1.576000000    -4.437000000
C    -1.827000000     2.986000000    -4.176000000
H    -2.768000000     3.015000000    -4.729000000
H    -1.285000000     3.758000000    -4.725000000
C    -2.044000000     3.313000000    -2.746000000
C    -0.977000000     3.851000000    -2.054000000
C    -1.182000000     4.351000000    -0.761000000
H    -0.422000000     4.921000000    -0.232000000
C    -2.364000000     4.002000000    -0.120000000
O    -2.408000000     4.181000000     1.302000000
C    -2.059000000     3.033000000     2.103000000
H    -1.500000000     2.255000000     1.562000000
C    -1.161000000     3.461000000     3.242000000
C    -1.232000000     2.842000000     4.487000000
H    -2.014000000     2.113000000     4.686000000
C    -0.125000000     4.390000000     3.037000000
H    -0.105000000     4.900000000     2.077000000
C     0.593000000     4.862000000     4.158000000
O     1.274000000     6.052000000     3.981000000
C     0.423000000     4.283000000     5.438000000
H     1.165000000     4.418000000     6.220000000
C    -0.456000000     3.229000000     5.593000000
O    -0.419000000     2.525000000     6.773000000
C    -1.068000000     1.316000000     6.813000000
C    -0.386000000     0.196000000     6.445000000
H     0.623000000     0.399000000     6.096000000
C    -2.432000000     1.295000000     7.198000000
H    -2.987000000     2.215000000     7.367000000
C    -3.012000000     0.048000000     7.290000000
H    -3.995000000    -0.091000000     7.733000000
C    -2.318000000    -1.101000000     7.031000000
H    -2.775000000    -2.075000000     7.188000000
C    -0.982000000    -1.043000000     6.551000000
O    -0.404000000    -2.231000000     6.161000000
C    -0.597000000    -2.901000000     4.973000000
C     0.409000000    -3.885000000     4.617000000
H     1.275000000    -3.969000000     5.269000000
C     0.326000000    -4.619000000     3.398000000
O     1.359000000    -5.403000000     3.014000000
C     1.280000000    -6.193000000     1.919000000
C     2.201000000    -5.960000000     0.839000000
H     2.634000000    -4.981000000     0.648000000
C     0.525000000    -7.350000000     1.909000000
H    -0.028000000    -7.673000000     2.787000000
C     0.498000000    -8.229000000     0.852000000
H    -0.104000000    -9.134000000     0.831000000
C     1.270000000    -7.886000000    -0.257000000
H     1.188000000    -8.589000000    -1.083000000
C     2.198000000    -6.857000000    -0.248000000
O     2.852000000    -6.687000000    -1.443000000
C     2.707000000    -5.462000000    -2.113000000
C     3.903000000    -4.890000000    -2.429000000
H     4.830000000    -5.313000000    -2.051000000
C     3.955000000    -3.639000000    -3.058000000
O     5.230000000    -3.000000000    -3.193000000
C     5.490000000    -1.766000000    -3.793000000
C     5.550000000    -0.665000000    -2.966000000
H     5.603000000    -0.787000000    -1.887000000
C     5.490000000    -1.666000000    -5.194000000
H     5.431000000    -2.562000000    -5.806000000
C     5.638000000    -0.388000000    -5.715000000
H     5.778000000    -0.316000000    -6.790000000
C     5.808000000     0.730000000    -4.846000000
H     6.014000000     1.723000000    -5.237000000
C     5.785000000     0.610000000    -3.506000000
O     5.970000000     1.721000000    -2.684000000
C     4.914000000     2.391000000    -2.151000000
C     5.080000000     3.090000000    -0.930000000
H     6.084000000     3.014000000    -0.519000000
C     4.060000000     3.889000000    -0.436000000
O     4.395000000     4.628000000     0.666000000
C     3.562000000     5.616000000     1.165000000
C     3.407000000     6.885000000     0.514000000
H     3.955000000     6.955000000    -0.421000000
C     2.496000000     7.830000000     1.041000000
H     2.368000000     8.821000000     0.612000000
C     1.775000000     7.553000000     2.213000000
H     1.099000000     8.294000000     2.634000000
C     2.001000000     6.352000000     2.872000000
C     2.865000000     5.383000000     2.342000000
H     2.855000000     4.396000000     2.798000000
C     2.436000000    -1.655000000     0.104000000
H     3.272000000    -2.045000000    -0.471000000
C     1.307000000    -1.144000000    -0.603000000
H     1.352000000    -1.101000000    -1.689000000
C     0.215000000    -0.649000000     0.177000000
H    -0.678000000    -0.448000000    -0.389000000
C     0.278000000    -0.765000000     1.545000000
H    -0.605000000    -0.441000000     2.091000000
C     1.314000000    -1.368000000     2.208000000
H     1.169000000    -1.542000000     3.271000000
C     2.444000000    -1.844000000     1.519000000
C     3.599000000    -2.608000000     2.096000000
O     3.873000000    -2.567000000     3.277000000
O     4.462000000    -3.060000000     1.357000000
O     6.483000000     2.319000000     1.999000000
H     7.382000000     2.630000000     2.100000000
H     6.575000000     1.407000000     1.724000000
O     6.551000000    -2.683000000     3.405000000
H     5.601000000    -2.796000000     3.409000000
H     6.742000000    -2.226000000     4.223000000
O     6.288000000    -4.062000000     7.535000000
H     6.384000000    -3.247000000     7.043000000
H     5.356000000    -4.271000000     7.471000000
O     6.782000000    -1.386000000     6.352000000
H     6.463000000    -0.869000000     7.092000000
H     7.733000000    -1.282000000     6.378000000
O     3.102000000     1.700000000     2.163000000
H     2.602000000     0.913000000     1.945000000
H     4.002000000     1.487000000     1.917000000
O     4.165000000    -4.382000000     5.109000000
H     3.797000000    -3.765000000     4.477000000
H     4.993000000    -4.660000000     4.720000000
O     5.211000000    -5.614000000     1.700000000
H     6.132000000    -5.863000000     1.787000000
H     5.194000000    -4.681000000     1.912000000
O     2.503000000     1.749000000     5.017000000
H     2.176000000     1.875000000     4.126000000
H     3.258000000     1.170000000     4.916000000
O     5.797000000    -8.134000000     0.371000000
H     5.650000000    -7.951000000    -0.557000000
H     5.404000000    -7.390000000     0.827000000
O     7.775000000    -5.421000000    -0.129000000
H     8.280000000    -6.213000000    -0.315000000
H     7.649000000    -5.435000000     0.820000000
O     6.767000000    -0.637000000     1.663000000
H     6.888000000    -1.081000000     0.824000000
H     6.648000000    -1.346000000     2.294000000
O     4.829000000    -7.466000000     3.869000000
H     5.710000000    -7.821000000     3.751000000
H     4.854000000    -6.614000000     3.434000000
O     7.812000000    -5.285000000     2.568000000
H     7.634000000    -4.398000000     2.879000000
H     8.632000000    -5.530000000     2.997000000
O     9.551000000    -2.158000000     0.580000000
H     9.744000000    -1.235000000     0.744000000
H     8.704000000    -2.150000000     0.135000000
O     6.755000000    -2.563000000    -0.382000000
H     7.129000000    -3.384000000    -0.703000000
H     5.979000000    -2.829000000     0.110000000
O     3.892000000    -5.541000000     7.487000000
H     3.570000000    -5.330000000     6.611000000
H     4.061000000    -6.483000000     7.459000000
O     4.477000000    -0.376000000     4.630000000
H     4.714000000    -0.891000000     5.400000000
H     4.252000000    -1.027000000     3.965000000
O     6.287000000     2.016000000     4.977000000
H     5.712000000     2.482000000     4.371000000
H     5.993000000     1.106000000     4.934000000
O     2.307000000    -7.279000000     4.768000000
H     1.926000000    -6.624000000     4.182000000
H     3.221000000    -7.345000000     4.491000000
