215
-1444.32298
C     0.134000000    -3.462000000     3.198000000
H     0.510000000    -3.698000000     2.206000000
C    -1.151000000    -2.915000000     3.400000000
C    -1.452000000    -2.361000000     4.643000000
H    -2.453000000    -1.961000000     4.780000000
C    -2.119000000    -2.825000000     2.213000000
O    -2.177000000    -4.057000000     1.401000000
H    -1.664000000    -2.065000000     1.561000000
O    -3.432000000    -2.378000000     2.569000000
C    -4.046000000    -1.441000000     1.762000000
C    -4.040000000    -0.194000000     2.258000000
H    -3.736000000     0.107000000     3.257000000
C    -4.367000000     0.935000000     1.434000000
O    -4.051000000     2.172000000     1.908000000
C    -4.862000000     0.652000000     0.168000000
C    -5.212000000     1.834000000    -0.728000000
H    -6.096000000     1.633000000    -1.336000000
C    -4.036000000     2.322000000    -1.508000000
C    -3.855000000     1.829000000    -2.835000000
H    -4.486000000     1.040000000    -3.237000000
H    -5.469000000     2.673000000    -0.079000000
C    -4.979000000    -0.641000000    -0.244000000
H    -5.542000000    -0.963000000    -1.117000000
C    -4.424000000    -1.721000000     0.450000000
C    -4.555000000    -3.110000000    -0.021000000
H    -5.297000000    -3.172000000    -0.820000000
H    -4.876000000    -3.785000000     0.775000000
C    -3.293000000    -3.549000000    -0.669000000
C    -3.191000000    -3.333000000    -2.034000000
H    -4.003000000    -2.889000000    -2.604000000
C    -2.206000000    -4.061000000     0.042000000
C    -1.012000000    -4.403000000    -0.596000000
H    -0.123000000    -4.727000000    -0.062000000
C    -0.908000000    -4.230000000    -1.937000000
O     0.314000000    -4.507000000    -2.528000000
C     1.160000000    -3.398000000    -2.864000000
C     2.658000000    -3.732000000    -2.524000000
C     3.688000000    -3.072000000    -3.199000000
H     3.512000000    -2.322000000    -3.966000000
C     2.983000000    -4.496000000    -1.427000000
H     2.231000000    -5.037000000    -0.859000000
O     1.005000000    -2.901000000    -4.205000000
H     0.903000000    -2.584000000    -2.171000000
C    -1.987000000    -3.682000000    -2.600000000
C    -1.869000000    -3.290000000    -4.064000000
H    -2.898000000    -3.323000000    -4.428000000
H    -1.309000000    -4.058000000    -4.602000000
C    -1.195000000    -1.987000000    -4.342000000
C    -2.042000000    -0.890000000    -4.521000000
H    -3.121000000    -1.022000000    -4.558000000
C     0.194000000    -1.835000000    -4.373000000
C     0.761000000    -0.532000000    -4.420000000
H     1.839000000    -0.440000000    -4.527000000
C    -0.120000000     0.526000000    -4.494000000
O     0.388000000     1.836000000    -4.569000000
C     0.349000000     2.691000000    -3.429000000
C     1.684000000     3.345000000    -3.025000000
C     2.859000000     2.627000000    -3.213000000
H     2.843000000     1.587000000    -3.528000000
C     1.764000000     4.577000000    -2.392000000
H     0.852000000     5.158000000    -2.290000000
O    -0.669000000     3.603000000    -3.554000000
H     0.132000000     2.010000000    -2.594000000
C    -1.446000000     0.389000000    -4.616000000
C    -2.433000000     1.583000000    -4.831000000
H    -3.362000000     1.310000000    -5.337000000
H    -1.981000000     2.305000000    -5.514000000
C    -2.675000000     2.261000000    -3.530000000
C    -1.895000000     3.332000000    -3.058000000
C    -2.274000000     3.911000000    -1.841000000
H    -1.550000000     4.609000000    -1.429000000
C    -3.236000000     3.383000000    -1.008000000
O    -3.265000000     3.740000000     0.294000000
C    -2.913000000     2.790000000     1.337000000
H    -2.406000000     1.925000000     0.884000000
C    -2.045000000     3.356000000     2.457000000
C    -2.177000000     2.843000000     3.781000000
H    -3.042000000     2.295000000     4.145000000
C    -0.962000000     4.142000000     2.164000000
H    -0.841000000     4.477000000     1.136000000
C    -0.074000000     4.613000000     3.155000000
O     1.046000000     5.318000000     2.835000000
C    -0.193000000     4.092000000     4.441000000
H     0.510000000     4.395000000     5.212000000
C    -1.317000000     3.264000000     4.819000000
O    -1.411000000     3.010000000     6.199000000
C    -1.823000000     1.769000000     6.728000000
C    -1.122000000     0.590000000     6.394000000
H    -0.416000000     0.552000000     5.568000000
C    -2.809000000     1.719000000     7.740000000
H    -3.414000000     2.613000000     7.866000000
C    -3.089000000     0.556000000     8.416000000
H    -3.903000000     0.491000000     9.135000000
C    -2.454000000    -0.616000000     8.064000000
H    -2.657000000    -1.600000000     8.481000000
C    -1.482000000    -0.590000000     7.059000000
O    -0.777000000    -1.731000000     6.872000000
C    -0.503000000    -2.297000000     5.645000000
C     0.697000000    -2.976000000     5.495000000
H     1.309000000    -3.048000000     6.391000000
C     1.037000000    -3.566000000     4.273000000
O     2.284000000    -4.150000000     4.132000000
C     2.575000000    -5.049000000     3.108000000
C     3.442000000    -4.764000000     2.062000000
H     3.983000000    -3.823000000     2.008000000
C     1.963000000    -6.332000000     3.171000000
H     1.237000000    -6.610000000     3.931000000
C     2.102000000    -7.202000000     2.076000000
H     1.601000000    -8.164000000     2.158000000
C     2.943000000    -6.944000000     1.012000000
H     3.065000000    -7.702000000     0.242000000
C     3.658000000    -5.713000000     1.044000000
O     4.568000000    -5.436000000     0.043000000
C     4.282000000    -4.608000000    -1.002000000
C     5.306000000    -3.968000000    -1.695000000
H     6.334000000    -4.166000000    -1.403000000
C     4.951000000    -3.155000000    -2.742000000
O     5.955000000    -2.329000000    -3.278000000
C     5.765000000    -1.075000000    -3.743000000
C     5.516000000    -0.037000000    -2.870000000
H     5.631000000    -0.168000000    -1.797000000
C     5.910000000    -0.873000000    -5.102000000
H     6.275000000    -1.654000000    -5.764000000
C     5.633000000     0.343000000    -5.634000000
H     5.781000000     0.473000000    -6.703000000
C     5.305000000     1.391000000    -4.823000000
H     5.105000000     2.378000000    -5.231000000
C     5.376000000     1.245000000    -3.428000000
O     5.224000000     2.355000000    -2.638000000
C     4.087000000     3.158000000    -2.806000000
C     4.136000000     4.402000000    -2.212000000
H     5.018000000     4.916000000    -1.838000000
C     2.979000000     5.108000000    -2.032000000
O     2.972000000     6.386000000    -1.541000000
C     2.341000000     6.814000000    -0.388000000
C     2.142000000     8.144000000    -0.124000000
H     2.351000000     8.879000000    -0.898000000
C     1.319000000     8.505000000     1.007000000
H     0.857000000     9.488000000     1.023000000
C     0.865000000     7.592000000     1.975000000
H     0.359000000     7.925000000     2.878000000
C     1.320000000     6.257000000     1.837000000
C     2.035000000     5.922000000     0.697000000
H     2.314000000     4.880000000     0.566000000
C     2.675000000    -0.211000000    -0.017000000
H     3.638000000    -0.278000000    -0.518000000
C     1.499000000    -0.275000000    -0.842000000
H     1.541000000    -0.129000000    -1.918000000
C     0.300000000    -0.334000000    -0.221000000
H    -0.610000000    -0.370000000    -0.825000000
C     0.259000000    -0.312000000     1.187000000
H    -0.684000000    -0.395000000     1.720000000
C     1.355000000    -0.276000000     1.977000000
H     1.237000000    -0.314000000     3.057000000
C     2.613000000    -0.145000000     1.340000000
C     3.889000000    -0.180000000     2.068000000
O     3.836000000    -0.206000000     3.240000000
O     5.012000000     0.102000000     1.560000000
O     9.158000000    -4.185000000     1.212000000
H     8.270000000    -3.846000000     1.324000000
H     9.035000000    -5.062000000     0.847000000
O     5.735000000     2.124000000    -0.011000000
H     5.259000000     1.492000000     0.527000000
H     5.278000000     2.117000000    -0.852000000
O     5.345000000     4.744000000     6.627000000
H     5.406000000     3.811000000     6.424000000
H     5.520000000     4.797000000     7.567000000
O     6.865000000     4.980000000     3.328000000
H     6.165000000     4.417000000     3.657000000
H     7.061000000     5.570000000     4.055000000
O     6.945000000    -2.168000000     7.289000000
H     6.796000000    -2.780000000     6.568000000
H     7.042000000    -1.316000000     6.863000000
O     9.676000000    -0.076000000     2.404000000
H     9.591000000     0.781000000     2.823000000
H     8.925000000    -0.129000000     1.814000000
O     2.250000000     1.643000000     4.420000000
H     2.602000000     0.808000000     4.111000000
H     2.852000000     2.300000000     4.071000000
O     8.926000000    -1.546000000     4.853000000
H     9.388000000    -0.990000000     4.226000000
H     8.001000000    -1.439000000     4.631000000
O     4.998000000    -5.900000000     5.755000000
H     5.706000000    -6.366000000     6.201000000
H     5.301000000    -4.994000000     5.707000000
O     6.300000000     1.399000000     6.921000000
H     7.069000000     1.681000000     6.426000000
H     5.744000000     0.966000000     6.273000000
O     8.492000000     1.937000000     3.847000000
H     8.778000000     2.298000000     4.686000000
H     7.600000000     2.264000000     3.736000000
O     7.214000000    -1.251000000     1.645000000
H     7.638000000    -1.187000000     0.789000000
H     6.403000000    -0.751000000     1.548000000
O     8.366000000     1.006000000    -0.083000000
H     9.011000000     1.691000000     0.095000000
H     7.529000000     1.470000000    -0.116000000
O     7.754000000     4.065000000     0.732000000
H     7.600000000     4.400000000     1.615000000
H     6.957000000     3.579000000     0.518000000
O     5.796000000     2.188000000     3.332000000
H     5.013000000     2.722000000     3.194000000
H     5.556000000     1.323000000     3.001000000
O     2.916000000     2.126000000     7.043000000
H     2.398000000     2.865000000     7.363000000
H     2.623000000     2.001000000     6.141000000
O     6.167000000    -0.905000000     4.202000000
H     6.713000000    -0.785000000     3.425000000
H     5.292000000    -0.636000000     3.923000000
O     3.574000000     3.496000000     2.741000000
H     3.446000000     4.312000000     3.224000000
H     2.811000000     3.435000000     2.166000000
O     5.273000000    -3.521000000     4.733000000
H     4.447000000    -3.794000000     4.332000000
H     5.337000000    -2.586000000     4.537000000
