215
-1462.48696
C    -0.600000000    -3.355000000     2.709000000
H    -0.671000000    -3.745000000     1.697000000
C    -1.668000000    -2.672000000     3.240000000
C    -1.703000000    -2.291000000     4.591000000
H    -2.496000000    -1.724000000     5.071000000
C    -2.710000000    -2.277000000     2.135000000
O    -3.073000000    -3.413000000     1.338000000
H    -2.375000000    -1.450000000     1.491000000
O    -3.858000000    -1.744000000     2.808000000
C    -4.225000000    -0.494000000     2.321000000
C    -3.718000000     0.559000000     2.959000000
H    -3.024000000     0.411000000     3.784000000
C    -3.961000000     1.849000000     2.474000000
O    -3.244000000     2.867000000     2.994000000
C    -4.591000000     2.025000000     1.212000000
C    -4.603000000     3.384000000     0.456000000
H    -5.378000000     3.228000000    -0.297000000
C    -3.387000000     3.587000000    -0.377000000
C    -3.419000000     3.271000000    -1.725000000
H    -4.341000000     2.890000000    -2.156000000
H    -4.931000000     4.246000000     1.041000000
C    -5.019000000     0.870000000     0.567000000
H    -5.298000000     0.986000000    -0.478000000
C    -4.877000000    -0.405000000     1.112000000
C    -5.337000000    -1.623000000     0.344000000
H    -6.168000000    -1.256000000    -0.262000000
H    -5.711000000    -2.383000000     1.033000000
C    -4.237000000    -2.254000000    -0.564000000
C    -4.200000000    -2.085000000    -1.926000000
H    -5.006000000    -1.525000000    -2.393000000
C    -3.183000000    -3.056000000    -0.012000000
C    -2.177000000    -3.576000000    -0.799000000
H    -1.442000000    -4.218000000    -0.321000000
C    -2.150000000    -3.321000000    -2.166000000
O    -1.034000000    -3.733000000    -2.863000000
C     0.011000000    -2.792000000    -3.068000000
C     1.406000000    -3.451000000    -2.875000000
C     2.520000000    -2.931000000    -3.634000000
H     2.316000000    -2.036000000    -4.217000000
C     1.604000000    -4.472000000    -2.007000000
H     0.808000000    -4.873000000    -1.385000000
O    -0.114000000    -2.235000000    -4.399000000
H    -0.189000000    -1.967000000    -2.369000000
C    -3.115000000    -2.479000000    -2.737000000
C    -3.010000000    -2.041000000    -4.109000000
H    -4.023000000    -1.703000000    -4.337000000
H    -2.906000000    -2.867000000    -4.815000000
C    -2.073000000    -0.829000000    -4.303000000
C    -2.621000000     0.469000000    -4.219000000
H    -3.664000000     0.629000000    -3.956000000
C    -0.704000000    -1.010000000    -4.463000000
C     0.116000000     0.116000000    -4.717000000
H     1.163000000    -0.019000000    -4.973000000
C    -0.396000000     1.385000000    -4.442000000
O     0.459000000     2.456000000    -4.450000000
C     0.842000000     2.761000000    -3.102000000
C     2.358000000     2.968000000    -3.055000000
C     3.199000000     2.307000000    -3.987000000
H     2.726000000     1.880000000    -4.868000000
C     2.945000000     3.725000000    -2.062000000
H     2.376000000     4.353000000    -1.382000000
O     0.130000000     3.965000000    -2.595000000
H     0.692000000     1.959000000    -2.365000000
C    -1.735000000     1.567000000    -4.157000000
C    -2.304000000     2.904000000    -3.966000000
H    -3.342000000     2.999000000    -4.294000000
H    -1.777000000     3.680000000    -4.525000000
C    -2.273000000     3.346000000    -2.499000000
C    -1.066000000     3.843000000    -1.928000000
C    -1.044000000     4.203000000    -0.578000000
H    -0.125000000     4.589000000    -0.145000000
C    -2.164000000     4.012000000     0.237000000
O    -2.062000000     4.237000000     1.594000000
C    -1.945000000     3.062000000     2.401000000
H    -1.657000000     2.253000000     1.712000000
C    -0.799000000     3.037000000     3.398000000
C    -0.972000000     2.690000000     4.756000000
H    -1.935000000     2.476000000     5.211000000
C     0.450000000     3.330000000     2.885000000
H     0.570000000     3.594000000     1.837000000
C     1.596000000     3.357000000     3.642000000
O     2.822000000     3.642000000     3.204000000
C     1.426000000     3.043000000     5.042000000
H     2.301000000     2.983000000     5.684000000
C     0.204000000     2.665000000     5.534000000
O     0.196000000     2.240000000     6.839000000
C    -0.629000000     1.236000000     7.245000000
C    -0.269000000    -0.074000000     6.935000000
H     0.598000000    -0.314000000     6.325000000
C    -1.782000000     1.515000000     7.940000000
H    -2.000000000     2.526000000     8.273000000
C    -2.711000000     0.463000000     8.100000000
H    -3.679000000     0.693000000     8.538000000
C    -2.377000000    -0.880000000     7.856000000
H    -3.141000000    -1.629000000     8.049000000
C    -1.175000000    -1.149000000     7.229000000
O    -0.804000000    -2.414000000     6.844000000
C    -0.724000000    -2.698000000     5.504000000
C     0.322000000    -3.435000000     4.955000000
H     1.185000000    -3.698000000     5.562000000
C     0.434000000    -3.650000000     3.576000000
O     1.514000000    -4.292000000     3.103000000
C     1.540000000    -5.293000000     2.218000000
C     2.439000000    -5.191000000     1.177000000
H     3.158000000    -4.377000000     1.120000000
C     0.686000000    -6.376000000     2.319000000
H    -0.030000000    -6.463000000     3.132000000
C     0.814000000    -7.488000000     1.504000000
H     0.143000000    -8.342000000     1.556000000
C     1.720000000    -7.328000000     0.371000000
H     1.734000000    -8.107000000    -0.386000000
C     2.380000000    -6.108000000     0.189000000
O     3.145000000    -5.972000000    -0.963000000
C     2.890000000    -4.934000000    -1.810000000
C     3.973000000    -4.520000000    -2.621000000
H     5.016000000    -4.803000000    -2.500000000
C     3.810000000    -3.430000000    -3.450000000
O     4.888000000    -3.059000000    -4.226000000
C     4.893000000    -1.973000000    -5.017000000
C     5.096000000    -0.685000000    -4.391000000
H     5.259000000    -0.569000000    -3.322000000
C     4.894000000    -2.160000000    -6.368000000
H     4.668000000    -3.077000000    -6.907000000
C     4.747000000    -1.010000000    -7.113000000
H     4.582000000    -1.125000000    -8.181000000
C     4.945000000     0.281000000    -6.586000000
H     4.988000000     1.137000000    -7.255000000
C     5.152000000     0.405000000    -5.250000000
O     5.381000000     1.687000000    -4.684000000
C     4.548000000     2.218000000    -3.742000000
C     5.162000000     2.879000000    -2.680000000
H     6.215000000     2.735000000    -2.453000000
C     4.356000000     3.682000000    -1.847000000
O     5.006000000     4.412000000    -0.841000000
C     4.358000000     4.939000000     0.222000000
C     3.905000000     6.234000000     0.104000000
H     4.115000000     6.828000000    -0.782000000
C     2.975000000     6.710000000     1.031000000
H     2.573000000     7.714000000     0.921000000
C     2.600000000     5.871000000     2.059000000
H     1.898000000     6.232000000     2.808000000
C     3.085000000     4.543000000     2.198000000
C     3.932000000     4.073000000     1.202000000
H     4.259000000     3.037000000     1.221000000
C     2.482000000    -0.249000000     0.080000000
H     3.374000000    -0.322000000    -0.538000000
C     1.242000000    -0.177000000    -0.577000000
H     1.165000000    -0.114000000    -1.659000000
C     0.086000000    -0.049000000     0.227000000
H    -0.803000000     0.135000000    -0.209000000
C     0.230000000    -0.115000000     1.635000000
H    -0.654000000     0.050000000     2.245000000
C     1.467000000    -0.321000000     2.211000000
H     1.556000000    -0.253000000     3.292000000
C     2.599000000    -0.332000000     1.477000000
C     3.932000000    -0.312000000     2.135000000
O     3.947000000    -0.308000000     3.362000000
O     4.947000000    -0.414000000     1.504000000
O     4.805000000    -4.538000000     4.641000000
H     5.019000000    -4.956000000     5.475000000
H     4.763000000    -5.261000000     4.015000000
O     7.999000000     1.512000000     5.391000000
H     7.649000000     2.401000000     5.440000000
H     8.697000000     1.492000000     6.045000000
O     7.482000000    -3.658000000    -2.694000000
H     6.750000000    -3.226000000    -2.256000000
H     7.718000000    -4.380000000    -2.112000000
O     5.346000000    -3.017000000     2.011000000
H     5.299000000    -2.063000000     1.952000000
H     5.126000000    -3.213000000     2.922000000
O     5.794000000    -0.706000000     8.099000000
H     5.309000000     0.015000000     7.698000000
H     6.645000000    -0.329000000     8.321000000
O     3.153000000    -1.601000000     5.795000000
H     3.036000000    -2.459000000     5.386000000
H     3.363000000    -1.015000000     5.068000000
O     7.818000000     0.686000000    -1.330000000
H     8.636000000     0.364000000    -0.952000000
H     7.328000000    -0.106000000    -1.550000000
O     4.594000000     1.628000000     7.298000000
H     4.659000000     1.604000000     6.344000000
H     4.191000000     2.475000000     7.490000000
O     6.824000000    -2.728000000     6.433000000
H     6.509000000    -2.011000000     6.983000000
H     6.762000000    -2.390000000     5.539000000
O     8.405000000    -3.644000000     2.472000000
H     7.627000000    -3.137000000     2.241000000
H     8.322000000    -4.452000000     1.966000000
O     9.453000000    -1.619000000     5.536000000
H     9.114000000    -2.501000000     5.385000000
H     8.698000000    -1.124000000     5.855000000
O     4.537000000     1.878000000     4.513000000
H     4.391000000     1.043000000     4.067000000
H     3.945000000     2.490000000     4.077000000
O     6.730000000     1.518000000     1.218000000
H     6.917000000     1.228000000     0.325000000
H     6.094000000     0.883000000     1.547000000
O     6.619000000    -0.666000000     4.478000000
H     7.040000000     0.171000000     4.673000000
H     5.807000000    -0.427000000     4.029000000
O     1.595000000    -3.232000000     7.981000000
H     0.693000000    -3.312000000     8.293000000
H     1.546000000    -2.594000000     7.270000000
O     6.440000000     3.236000000     3.320000000
H     5.961000000     2.630000000     3.885000000
H     6.545000000     2.762000000     2.495000000
O     5.696000000    -1.925000000    -0.912000000
H     5.148000000    -2.658000000    -0.632000000
H     5.526000000    -1.239000000    -0.266000000
O     6.902000000     5.772000000     4.290000000
H     6.533000000     5.947000000     5.156000000
H     6.516000000     4.936000000     4.030000000
O     2.752000000    -0.468000000     8.776000000
H     3.086000000    -1.057000000     8.099000000
H     3.032000000     0.403000000     8.494000000
