215
-1442.52005
C    -1.514000000    -4.288000000     2.624000000
H    -1.606000000    -4.694000000     1.619000000
C    -2.152000000    -3.038000000     2.909000000
C    -1.891000000    -2.401000000     4.098000000
H    -2.351000000    -1.437000000     4.300000000
C    -2.987000000    -2.305000000     1.866000000
O    -3.596000000    -3.184000000     0.953000000
H    -2.363000000    -1.635000000     1.257000000
O    -3.953000000    -1.469000000     2.521000000
C    -4.023000000    -0.263000000     1.981000000
C    -3.271000000     0.732000000     2.634000000
H    -2.826000000     0.428000000     3.579000000
C    -3.220000000     2.018000000     2.081000000
O    -2.474000000     2.947000000     2.762000000
C    -3.997000000     2.392000000     1.009000000
C    -3.942000000     3.790000000     0.472000000
H    -4.885000000     4.004000000    -0.034000000
C    -2.723000000     3.968000000    -0.429000000
C    -2.822000000     3.617000000    -1.792000000
H    -3.747000000     3.353000000    -2.298000000
H    -3.947000000     4.553000000     1.254000000
C    -4.872000000     1.412000000     0.400000000
H    -5.416000000     1.584000000    -0.526000000
C    -4.778000000     0.080000000     0.843000000
C    -5.492000000    -0.981000000     0.022000000
H    -6.220000000    -0.426000000    -0.573000000
H    -6.100000000    -1.580000000     0.703000000
C    -4.522000000    -1.867000000    -0.900000000
C    -4.359000000    -1.443000000    -2.234000000
H    -4.804000000    -0.499000000    -2.538000000
C    -3.722000000    -2.940000000    -0.371000000
C    -2.892000000    -3.667000000    -1.229000000
H    -2.327000000    -4.527000000    -0.880000000
C    -2.755000000    -3.219000000    -2.503000000
O    -1.753000000    -3.791000000    -3.208000000
C    -0.552000000    -2.933000000    -3.407000000
C     0.799000000    -3.617000000    -3.139000000
C     1.917000000    -3.288000000    -3.936000000
H     1.895000000    -2.548000000    -4.733000000
C     0.954000000    -4.500000000    -2.039000000
H     0.075000000    -4.550000000    -1.401000000
O    -0.623000000    -2.415000000    -4.721000000
H    -0.733000000    -2.108000000    -2.702000000
C    -3.484000000    -2.139000000    -3.083000000
C    -3.329000000    -1.591000000    -4.469000000
H    -4.211000000    -1.037000000    -4.797000000
H    -3.211000000    -2.475000000    -5.099000000
C    -2.167000000    -0.625000000    -4.483000000
C    -2.426000000     0.734000000    -4.236000000
H    -3.444000000     1.087000000    -4.088000000
C    -0.856000000    -1.066000000    -4.666000000
C     0.166000000    -0.130000000    -4.654000000
H     1.172000000    -0.527000000    -4.759000000
C    -0.075000000     1.228000000    -4.407000000
O     1.006000000     2.037000000    -4.162000000
C     1.275000000     2.545000000    -2.807000000
C     2.774000000     2.535000000    -2.353000000
C     3.710000000     1.848000000    -3.143000000
H     3.369000000     1.449000000    -4.095000000
C     3.237000000     2.998000000    -1.084000000
H     2.522000000     3.371000000    -0.355000000
O     0.667000000     3.848000000    -2.743000000
H     0.797000000     1.852000000    -2.099000000
C    -1.386000000     1.659000000    -4.273000000
C    -1.827000000     3.090000000    -3.953000000
H    -2.868000000     3.223000000    -4.255000000
H    -1.213000000     3.706000000    -4.612000000
C    -1.693000000     3.612000000    -2.547000000
C    -0.466000000     4.031000000    -2.026000000
C    -0.350000000     4.372000000    -0.661000000
H     0.530000000     4.638000000    -0.080000000
C    -1.462000000     4.392000000     0.095000000
O    -1.336000000     4.620000000     1.412000000
C    -1.197000000     3.440000000     2.278000000
H    -0.747000000     2.608000000     1.716000000
C    -0.280000000     3.796000000     3.484000000
C    -0.360000000     2.993000000     4.603000000
H    -1.054000000     2.160000000     4.675000000
C     0.811000000     4.650000000     3.382000000
H     0.952000000     5.282000000     2.508000000
C     1.817000000     4.582000000     4.283000000
O     2.927000000     5.313000000     4.155000000
C     1.660000000     3.911000000     5.515000000
H     2.431000000     4.061000000     6.266000000
C     0.565000000     3.133000000     5.682000000
O     0.448000000     2.387000000     6.848000000
C    -0.482000000     1.365000000     7.031000000
C    -0.162000000     0.112000000     6.506000000
H     0.850000000     0.024000000     6.120000000
C    -1.791000000     1.514000000     7.546000000
H    -2.071000000     2.445000000     8.032000000
C    -2.754000000     0.473000000     7.438000000
H    -3.735000000     0.628000000     7.881000000
C    -2.323000000    -0.756000000     7.010000000
H    -3.089000000    -1.521000000     7.115000000
C    -1.071000000    -0.924000000     6.520000000
O    -0.661000000    -2.191000000     6.110000000
C    -0.967000000    -2.852000000     4.966000000
C    -0.336000000    -4.082000000     4.714000000
H     0.483000000    -4.494000000     5.298000000
C    -0.573000000    -4.786000000     3.503000000
O     0.021000000    -6.041000000     3.351000000
C     0.289000000    -6.576000000     2.085000000
C     1.293000000    -5.991000000     1.281000000
H     1.949000000    -5.179000000     1.583000000
C    -0.465000000    -7.685000000     1.668000000
H    -1.288000000    -8.093000000     2.249000000
C    -0.345000000    -8.037000000     0.334000000
H    -1.051000000    -8.754000000    -0.078000000
C     0.579000000    -7.396000000    -0.488000000
H     0.603000000    -7.615000000    -1.553000000
C     1.482000000    -6.422000000    -0.019000000
O     2.416000000    -5.919000000    -0.749000000
C     2.200000000    -5.079000000    -1.826000000
C     3.261000000    -4.798000000    -2.654000000
H     4.192000000    -5.297000000    -2.398000000
C     3.170000000    -3.850000000    -3.658000000
O     4.370000000    -3.624000000    -4.319000000
C     4.688000000    -2.361000000    -4.805000000
C     5.083000000    -1.359000000    -3.915000000
H     5.238000000    -1.658000000    -2.882000000
C     4.553000000    -2.072000000    -6.133000000
H     4.172000000    -2.831000000    -6.811000000
C     4.968000000    -0.823000000    -6.576000000
H     4.761000000    -0.560000000    -7.610000000
C     5.424000000     0.218000000    -5.766000000
H     5.639000000     1.216000000    -6.139000000
C     5.414000000    -0.054000000    -4.412000000
O     5.891000000     0.844000000    -3.482000000
C     5.003000000     1.624000000    -2.734000000
C     5.426000000     2.155000000    -1.525000000
H     6.410000000     1.906000000    -1.136000000
C     4.587000000     2.852000000    -0.690000000
O     5.056000000     3.403000000     0.435000000
C     4.506000000     4.466000000     1.072000000
C     4.620000000     5.698000000     0.444000000
H     5.013000000     5.775000000    -0.566000000
C     4.252000000     6.848000000     1.169000000
H     4.452000000     7.830000000     0.746000000
C     3.640000000     6.722000000     2.407000000
H     3.347000000     7.502000000     3.105000000
C     3.470000000     5.472000000     2.962000000
C     3.870000000     4.369000000     2.285000000
H     3.738000000     3.415000000     2.789000000
C     2.540000000    -1.493000000    -0.694000000
H     3.238000000    -1.873000000    -1.435000000
C     1.477000000    -0.644000000    -1.054000000
H     1.354000000    -0.344000000    -2.092000000
C     0.478000000    -0.305000000    -0.080000000
H    -0.338000000     0.375000000    -0.242000000
C     0.729000000    -0.703000000     1.228000000
H     0.038000000    -0.386000000     2.005000000
C     1.833000000    -1.446000000     1.583000000
H     1.891000000    -1.839000000     2.595000000
C     2.740000000    -1.846000000     0.640000000
C     3.921000000    -2.649000000     1.125000000
O     4.013000000    -2.801000000     2.338000000
O     4.639000000    -3.255000000     0.332000000
O     5.379000000     3.095000000     5.223000000
H     4.665000000     2.666000000     5.695000000
H     5.742000000     2.408000000     4.664000000
O     7.572000000    -6.884000000     3.348000000
H     6.726000000    -7.145000000     3.713000000
H     8.217000000    -7.246000000     3.956000000
O     7.028000000    -2.679000000    -0.663000000
H     6.831000000    -3.036000000    -1.529000000
H     6.195000000    -2.717000000    -0.193000000
O     5.582000000    -7.988000000    -1.823000000
H     5.726000000    -7.258000000    -1.221000000
H     6.164000000    -7.808000000    -2.562000000
O     6.135000000    -2.744000000     6.628000000
H     6.071000000    -3.673000000     6.407000000
H     5.743000000    -2.292000000     5.881000000
O     4.406000000    -5.339000000     3.058000000
H     4.963000000    -5.675000000     2.356000000
H     4.264000000    -4.420000000     2.832000000
O     5.347000000    -5.723000000     0.047000000
H     4.515000000    -6.191000000    -0.019000000
H     5.098000000    -4.807000000     0.164000000
O     2.321000000    -6.403000000     5.009000000
H     1.495000000    -6.552000000     4.548000000
H     2.884000000    -5.979000000     4.362000000
O     8.980000000    -0.839000000    -0.241000000
H     8.445000000    -1.578000000    -0.531000000
H     8.605000000    -0.589000000     0.604000000
O     8.490000000    -2.776000000     2.097000000
H     9.332000000    -2.443000000     1.787000000
H     8.146000000    -3.281000000     1.361000000
O     5.634000000    -5.329000000     5.626000000
H     5.767000000    -6.243000000     5.875000000
H     5.240000000    -5.373000000     4.755000000
O     8.613000000    -6.065000000     0.812000000
H     8.236000000    -6.104000000     1.691000000
H     7.870000000    -5.870000000     0.241000000
O     8.837000000     0.861000000    -2.281000000
H     8.772000000     0.478000000    -1.406000000
H     8.220000000     0.354000000    -2.810000000
O     7.868000000    -4.801000000    -3.415000000
H     8.101000000    -4.031000000    -3.934000000
H     7.222000000    -5.263000000    -3.949000000
O     3.883000000    -2.021000000     4.929000000
H     3.518000000    -1.141000000     4.839000000
H     3.864000000    -2.380000000     4.042000000
O     7.049000000     1.070000000     3.956000000
H     6.670000000     0.265000000     3.603000000
H     7.987000000     0.889000000     4.011000000
O     9.200000000    -2.090000000     4.602000000
H     8.809000000    -2.574000000     3.874000000
H     9.292000000    -1.196000000     4.273000000
O     6.284000000    -1.206000000     2.915000000
H     5.579000000    -1.853000000     2.933000000
H     6.982000000    -1.626000000     2.412000000
O     2.590000000    -3.130000000     7.136000000
H     3.126000000    -3.810000000     7.544000000
H     3.154000000    -2.753000000     6.461000000
