215
-1450.62438
C    -3.325000000    -4.518000000     1.901000000
H    -3.597000000    -4.942000000     0.938000000
C    -3.529000000    -3.183000000     2.149000000
C    -3.020000000    -2.627000000     3.314000000
H    -2.920000000    -1.546000000     3.368000000
C    -3.913000000    -2.204000000     0.994000000
O    -4.382000000    -2.955000000    -0.185000000
H    -3.043000000    -1.587000000     0.722000000
O    -4.846000000    -1.217000000     1.565000000
C    -4.625000000     0.098000000     1.053000000
C    -3.910000000     0.977000000     1.877000000
H    -3.560000000     0.677000000     2.861000000
C    -3.743000000     2.351000000     1.497000000
O    -2.949000000     3.119000000     2.306000000
C    -4.111000000     2.732000000     0.207000000
C    -3.814000000     4.094000000    -0.332000000
H    -4.470000000     4.421000000    -1.141000000
C    -2.411000000     4.213000000    -0.904000000
C    -2.132000000     3.965000000    -2.239000000
H    -2.934000000     3.633000000    -2.894000000
H    -4.062000000     4.842000000     0.423000000
C    -4.795000000     1.831000000    -0.619000000
H    -5.002000000     2.198000000    -1.621000000
C    -4.864000000     0.456000000    -0.225000000
C    -5.496000000    -0.525000000    -1.224000000
H    -6.107000000     0.071000000    -1.906000000
H    -6.075000000    -1.254000000    -0.653000000
C    -4.414000000    -1.246000000    -1.966000000
C    -3.855000000    -0.796000000    -3.140000000
H    -4.252000000     0.078000000    -3.649000000
C    -3.943000000    -2.426000000    -1.410000000
C    -2.991000000    -3.158000000    -2.010000000
H    -2.558000000    -4.029000000    -1.526000000
C    -2.403000000    -2.732000000    -3.227000000
O    -1.163000000    -3.248000000    -3.638000000
C     0.106000000    -2.547000000    -3.446000000
C     1.236000000    -3.412000000    -2.962000000
C     2.514000000    -3.364000000    -3.448000000
H     2.678000000    -2.697000000    -4.290000000
C     0.956000000    -4.235000000    -1.855000000
H    -0.029000000    -4.267000000    -1.396000000
O     0.524000000    -1.912000000    -4.664000000
H    -0.054000000    -1.757000000    -2.699000000
C    -2.853000000    -1.505000000    -3.797000000
C    -2.302000000    -0.973000000    -5.137000000
H    -3.051000000    -0.453000000    -5.736000000
H    -2.059000000    -1.898000000    -5.665000000
C    -1.167000000    -0.016000000    -4.948000000
C    -1.341000000     1.376000000    -4.833000000
H    -2.309000000     1.853000000    -4.965000000
C     0.098000000    -0.566000000    -4.643000000
C     1.155000000     0.257000000    -4.255000000
H     2.122000000    -0.153000000    -3.975000000
C     0.945000000     1.581000000    -4.060000000
O     1.967000000     2.303000000    -3.614000000
C     2.012000000     2.734000000    -2.178000000
C     3.436000000     2.699000000    -1.629000000
C     4.185000000     1.568000000    -1.809000000
H     3.684000000     0.746000000    -2.314000000
C     3.963000000     3.738000000    -0.836000000
H     3.369000000     4.610000000    -0.572000000
O     1.585000000     4.134000000    -2.203000000
H     1.453000000     2.124000000    -1.454000000
C    -0.322000000     2.155000000    -4.388000000
C    -0.546000000     3.678000000    -4.171000000
H    -1.333000000     4.132000000    -4.777000000
H     0.370000000     4.217000000    -4.423000000
C    -0.826000000     3.978000000    -2.720000000
C     0.256000000     4.293000000    -1.876000000
C    -0.016000000     4.491000000    -0.487000000
H     0.881000000     4.735000000     0.078000000
C    -1.307000000     4.438000000    -0.044000000
O    -1.558000000     4.571000000     1.267000000
C    -1.569000000     3.330000000     2.021000000
H    -1.230000000     2.561000000     1.311000000
C    -0.639000000     3.317000000     3.333000000
C    -0.974000000     2.480000000     4.430000000
H    -1.868000000     1.868000000     4.520000000
C     0.607000000     3.893000000     3.286000000
H     0.937000000     4.539000000     2.476000000
C     1.436000000     3.802000000     4.449000000
O     2.761000000     4.312000000     4.437000000
C     1.111000000     3.028000000     5.585000000
H     1.744000000     2.901000000     6.459000000
C    -0.117000000     2.302000000     5.486000000
O    -0.473000000     1.543000000     6.569000000
C    -1.343000000     0.515000000     6.571000000
C    -1.087000000    -0.662000000     5.965000000
H    -0.167000000    -0.760000000     5.395000000
C    -2.542000000     0.696000000     7.244000000
H    -2.668000000     1.676000000     7.697000000
C    -3.495000000    -0.311000000     7.333000000
H    -4.384000000    -0.238000000     7.955000000
C    -3.166000000    -1.587000000     6.810000000
H    -3.805000000    -2.447000000     6.990000000
C    -2.028000000    -1.672000000     6.004000000
O    -1.671000000    -2.822000000     5.333000000
C    -2.426000000    -3.401000000     4.336000000
C    -2.275000000    -4.755000000     4.100000000
H    -1.712000000    -5.351000000     4.813000000
C    -2.661000000    -5.266000000     2.822000000
O    -2.284000000    -6.547000000     2.464000000
C    -1.486000000    -6.845000000     1.329000000
C    -0.446000000    -6.025000000     1.064000000
H    -0.169000000    -5.154000000     1.653000000
C    -1.694000000    -7.981000000     0.528000000
H    -2.554000000    -8.625000000     0.692000000
C    -0.679000000    -8.404000000    -0.370000000
H    -0.829000000    -9.285000000    -0.988000000
C     0.406000000    -7.544000000    -0.590000000
H     1.230000000    -7.794000000    -1.253000000
C     0.547000000    -6.391000000     0.190000000
O     1.666000000    -5.559000000    -0.067000000
C     1.961000000    -4.873000000    -1.167000000
C     3.250000000    -4.803000000    -1.657000000
H     4.068000000    -5.140000000    -1.026000000
C     3.531000000    -4.069000000    -2.773000000
O     4.852000000    -3.967000000    -3.114000000
C     5.438000000    -2.667000000    -3.347000000
C     5.389000000    -1.738000000    -2.282000000
H     5.010000000    -2.059000000    -1.315000000
C     6.012000000    -2.289000000    -4.529000000
H     5.884000000    -3.043000000    -5.301000000
C     6.753000000    -1.111000000    -4.667000000
H     7.446000000    -0.877000000    -5.470000000
C     6.742000000    -0.205000000    -3.555000000
H     7.447000000     0.609000000    -3.410000000
C     6.098000000    -0.568000000    -2.396000000
O     6.181000000     0.236000000    -1.288000000
C     5.422000000     1.394000000    -1.210000000
C     5.972000000     2.382000000    -0.416000000
H     6.941000000     2.228000000     0.051000000
C     5.218000000     3.575000000    -0.234000000
O     5.750000000     4.530000000     0.631000000
C     4.897000000     5.053000000     1.545000000
C     4.606000000     6.424000000     1.480000000
H     5.081000000     6.986000000     0.681000000
C     3.647000000     7.004000000     2.294000000
H     3.406000000     8.061000000     2.214000000
C     3.020000000     6.231000000     3.264000000
H     2.355000000     6.676000000     4.000000000
C     3.379000000     4.898000000     3.377000000
C     4.395000000     4.264000000     2.616000000
H     4.695000000     3.250000000     2.869000000
C     2.200000000    -1.330000000    -0.014000000
H     3.219000000    -1.332000000    -0.393000000
C     1.232000000    -0.529000000    -0.683000000
H     1.430000000     0.012000000    -1.605000000
C     0.015000000    -0.334000000    -0.180000000
H    -0.669000000     0.359000000    -0.583000000
C    -0.306000000    -0.937000000     1.039000000
H    -1.208000000    -0.678000000     1.588000000
C     0.625000000    -1.786000000     1.673000000
H     0.466000000    -2.191000000     2.669000000
C     1.857000000    -2.063000000     1.099000000
C     2.852000000    -2.901000000     1.744000000
O     2.457000000    -3.546000000     2.668000000
O     3.967000000    -3.101000000     1.207000000
O     1.733000000     1.115000000     2.047000000
H     1.175000000     0.353000000     1.896000000
H     1.804000000     1.534000000     1.189000000
O     7.839000000    -5.011000000     3.653000000
H     7.675000000    -4.889000000     4.588000000
H     7.001000000    -4.812000000     3.235000000
O     6.356000000    -8.462000000    -0.265000000
H     5.463000000    -8.391000000     0.074000000
H     6.852000000    -7.809000000     0.228000000
O     4.091000000    -6.010000000     2.225000000
H     3.400000000    -5.348000000     2.205000000
H     4.898000000    -5.520000000     2.063000000
O     2.694000000    -7.267000000     4.128000000
H     3.296000000    -6.863000000     3.504000000
H     2.902000000    -6.851000000     4.965000000
O     8.701000000    -1.331000000     2.730000000
H     8.789000000    -0.940000000     1.861000000
H     7.758000000    -1.447000000     2.847000000
O     4.565000000     1.868000000     6.528000000
H     4.068000000     1.616000000     5.749000000
H     4.641000000     2.820000000     6.466000000
O     0.429000000    -4.061000000     6.766000000
H     0.131000000    -3.169000000     6.945000000
H     0.195000000    -4.212000000     5.850000000
O     0.686000000    -5.168000000     4.151000000
H     1.292000000    -4.595000000     3.682000000
H     0.942000000    -6.052000000     3.889000000
O     3.156000000     0.705000000     4.358000000
H     2.626000000     0.708000000     3.561000000
H     3.162000000    -0.210000000     4.639000000
O     6.844000000    -4.164000000    -0.748000000
H     7.237000000    -5.001000000    -0.995000000
H     6.387000000    -3.871000000    -1.537000000
O     3.993000000    -8.435000000     1.143000000
H     3.646000000    -7.574000000     1.377000000
H     3.792000000    -8.988000000     1.898000000
O     6.022000000    -4.221000000     1.966000000
H     6.554000000    -4.163000000     1.173000000
H     5.179000000    -3.843000000     1.717000000
O     2.930000000    -2.159000000     4.801000000
H     2.584000000    -2.830000000     5.390000000
H     2.868000000    -2.550000000     3.930000000
O     5.979000000     1.200000000     3.777000000
H     5.088000000     0.873000000     3.649000000
H     6.405000000     1.072000000     2.930000000
O     6.504000000    -4.670000000     6.338000000
H     6.736000000    -4.629000000     7.266000000
H     5.966000000    -3.892000000     6.191000000
O     2.973000000    -6.280000000     6.524000000
H     2.056000000    -6.330000000     6.794000000
H     3.174000000    -5.344000000     6.533000000
O     5.972000000    -0.941000000     1.707000000
H     5.718000000    -0.320000000     1.024000000
H     5.263000000    -1.584000000     1.721000000
O     8.790000000    -2.144000000    -0.261000000
H     8.526000000    -3.007000000    -0.579000000
H     8.075000000    -1.870000000     0.313000000
