215
-1433.78256
C    -2.310000000    -3.951000000     2.572000000
H    -2.314000000    -4.547000000     1.663000000
C    -2.993000000    -2.697000000     2.646000000
C    -2.756000000    -1.968000000     3.789000000
H    -3.003000000    -0.912000000     3.713000000
C    -3.591000000    -2.155000000     1.402000000
O    -3.948000000    -3.155000000     0.445000000
H    -2.702000000    -1.640000000     1.009000000
O    -4.601000000    -1.249000000     1.534000000
C    -4.572000000    -0.072000000     0.821000000
C    -4.289000000     1.127000000     1.515000000
H    -4.047000000     0.972000000     2.564000000
C    -4.111000000     2.339000000     0.757000000
O    -3.489000000     3.379000000     1.451000000
C    -4.212000000     2.298000000    -0.676000000
C    -3.906000000     3.551000000    -1.579000000
H    -4.602000000     3.515000000    -2.420000000
C    -2.466000000     3.604000000    -1.955000000
C    -2.041000000     3.225000000    -3.257000000
H    -2.827000000     2.919000000    -3.943000000
H    -4.162000000     4.413000000    -0.959000000
C    -4.569000000     1.124000000    -1.283000000
H    -4.777000000     1.128000000    -2.350000000
C    -4.843000000    -0.058000000    -0.573000000
C    -5.370000000    -1.292000000    -1.245000000
H    -5.949000000    -1.005000000    -2.125000000
H    -5.985000000    -1.921000000    -0.598000000
C    -4.118000000    -2.078000000    -1.689000000
C    -3.518000000    -1.808000000    -2.873000000
H    -4.034000000    -1.126000000    -3.544000000
C    -3.528000000    -2.968000000    -0.851000000
C    -2.351000000    -3.587000000    -1.226000000
H    -1.741000000    -4.165000000    -0.537000000
C    -1.768000000    -3.381000000    -2.463000000
O    -0.659000000    -4.066000000    -2.744000000
C     0.508000000    -3.277000000    -2.692000000
C     1.659000000    -4.041000000    -2.034000000
C     2.981000000    -3.738000000    -2.350000000
H     3.219000000    -3.144000000    -3.228000000
C     1.424000000    -4.953000000    -1.033000000
H     0.387000000    -5.107000000    -0.746000000
O     0.899000000    -2.770000000    -3.964000000
H     0.254000000    -2.397000000    -2.082000000
C    -2.326000000    -2.428000000    -3.303000000
C    -1.745000000    -2.132000000    -4.704000000
H    -2.478000000    -1.663000000    -5.363000000
H    -1.434000000    -3.059000000    -5.190000000
C    -0.614000000    -1.108000000    -4.679000000
C    -0.904000000     0.261000000    -4.781000000
H    -1.937000000     0.583000000    -4.886000000
C     0.654000000    -1.447000000    -4.294000000
C     1.650000000    -0.472000000    -4.093000000
H     2.666000000    -0.789000000    -3.870000000
C     1.414000000     0.900000000    -4.279000000
O     2.448000000     1.810000000    -3.907000000
C     2.218000000     2.476000000    -2.682000000
C     3.564000000     2.580000000    -1.989000000
C     4.419000000     1.472000000    -1.862000000
H     4.384000000     0.596000000    -2.503000000
C     3.783000000     3.685000000    -1.166000000
H     2.972000000     4.405000000    -1.089000000
O     1.603000000     3.736000000    -2.933000000
H     1.568000000     1.845000000    -2.059000000
C     0.076000000     1.228000000    -4.595000000
C    -0.257000000     2.694000000    -4.895000000
H    -1.025000000     2.841000000    -5.658000000
H     0.642000000     3.243000000    -5.182000000
C    -0.727000000     3.413000000    -3.667000000
C     0.253000000     3.819000000    -2.768000000
C    -0.151000000     4.072000000    -1.512000000
H     0.609000000     4.297000000    -0.768000000
C    -1.472000000     3.968000000    -1.059000000
O    -1.771000000     4.482000000     0.197000000
C    -2.053000000     3.503000000     1.297000000
H    -1.667000000     2.506000000     1.040000000
C    -1.364000000     3.919000000     2.594000000
C    -1.746000000     3.301000000     3.744000000
H    -2.643000000     2.688000000     3.720000000
C    -0.277000000     4.842000000     2.567000000
H     0.091000000     5.105000000     1.578000000
C     0.438000000     5.123000000     3.724000000
O     1.564000000     5.991000000     3.753000000
C    -0.019000000     4.567000000     4.890000000
H     0.497000000     4.674000000     5.841000000
C    -1.145000000     3.733000000     4.915000000
O    -1.467000000     3.202000000     6.143000000
C    -2.161000000     2.014000000     6.361000000
C    -1.627000000     0.777000000     6.046000000
H    -0.638000000     0.771000000     5.595000000
C    -3.343000000     2.002000000     7.023000000
H    -3.809000000     2.948000000     7.287000000
C    -4.172000000     0.829000000     7.118000000
H    -5.119000000     0.912000000     7.646000000
C    -3.612000000    -0.403000000     6.795000000
H    -4.141000000    -1.339000000     6.957000000
C    -2.325000000    -0.444000000     6.243000000
O    -1.690000000    -1.625000000     5.954000000
C    -2.078000000    -2.504000000     4.893000000
C    -1.519000000    -3.735000000     4.766000000
H    -0.867000000    -4.131000000     5.540000000
C    -1.641000000    -4.486000000     3.642000000
O    -1.171000000    -5.817000000     3.720000000
C    -0.739000000    -6.506000000     2.593000000
C     0.605000000    -6.291000000     2.187000000
H     1.240000000    -5.620000000     2.761000000
C    -1.614000000    -7.215000000     1.790000000
H    -2.622000000    -7.385000000     2.160000000
C    -1.146000000    -7.730000000     0.582000000
H    -1.734000000    -8.286000000    -0.144000000
C     0.154000000    -7.552000000     0.206000000
H     0.427000000    -7.964000000    -0.763000000
C     1.081000000    -6.971000000     1.076000000
O     2.345000000    -6.613000000     0.642000000
C     2.500000000    -5.621000000    -0.368000000
C     3.768000000    -5.317000000    -0.721000000
H     4.546000000    -5.917000000    -0.255000000
C     4.064000000    -4.434000000    -1.712000000
O     5.399000000    -4.122000000    -2.025000000
C     5.734000000    -2.845000000    -2.420000000
C     5.824000000    -1.827000000    -1.483000000
H     5.454000000    -1.904000000    -0.464000000
C     6.404000000    -2.741000000    -3.667000000
H     6.426000000    -3.562000000    -4.380000000
C     6.817000000    -1.503000000    -4.096000000
H     7.074000000    -1.508000000    -5.152000000
C     6.853000000    -0.450000000    -3.211000000
H     6.957000000     0.585000000    -3.528000000
C     6.440000000    -0.657000000    -1.897000000
O     6.399000000     0.376000000    -1.011000000
C     5.570000000     1.512000000    -1.066000000
C     5.753000000     2.582000000    -0.201000000
H     6.613000000     2.584000000     0.465000000
C     4.875000000     3.664000000    -0.232000000
O     5.059000000     4.653000000     0.691000000
C     4.062000000     5.552000000     1.125000000
C     3.714000000     6.562000000     0.215000000
H     4.319000000     6.684000000    -0.680000000
C     2.733000000     7.422000000     0.579000000
H     2.422000000     8.227000000    -0.083000000
C     2.056000000     7.321000000     1.792000000
H     1.241000000     8.005000000     2.017000000
C     2.302000000     6.205000000     2.562000000
C     3.389000000     5.390000000     2.349000000
H     3.629000000     4.574000000     3.026000000
C     2.922000000    -0.231000000     1.161000000
H     3.718000000     0.415000000     1.521000000
C     1.820000000     0.380000000     0.565000000
H     1.830000000     1.464000000     0.479000000
C     0.743000000    -0.425000000     0.155000000
H    -0.131000000     0.015000000    -0.319000000
C     0.809000000    -1.768000000     0.271000000
H     0.068000000    -2.518000000     0.007000000
C     1.943000000    -2.329000000     0.912000000
H     2.018000000    -3.387000000     1.146000000
C     3.034000000    -1.598000000     1.302000000
C     4.187000000    -2.220000000     2.082000000
O     4.307000000    -3.371000000     2.316000000
O     5.137000000    -1.498000000     2.269000000
O     7.398000000    -4.399000000     0.231000000
H     8.074000000    -4.603000000    -0.416000000
H     6.604000000    -4.264000000    -0.285000000
O     9.099000000    -4.912000000     4.354000000
H     8.236000000    -4.536000000     4.524000000
H     9.573000000    -4.222000000     3.889000000
O     2.021000000    -1.091000000     4.843000000
H     1.589000000    -1.685000000     4.229000000
H     1.669000000    -1.334000000     5.699000000
O     6.808000000     1.071000000     3.489000000
H     7.473000000     0.498000000     3.871000000
H     5.975000000     0.661000000     3.721000000
O     5.510000000    -6.140000000     5.951000000
H     4.968000000    -5.351000000     5.922000000
H     6.342000000    -5.845000000     6.324000000
O     6.302000000    -1.149000000     6.318000000
H     7.206000000    -0.950000000     6.075000000
H     5.772000000    -0.587000000     5.751000000
O     6.768000000    -3.573000000     4.379000000
H     6.690000000    -3.324000000     3.459000000
H     5.950000000    -3.277000000     4.778000000
O     7.776000000    -7.098000000     1.959000000
H     7.913000000    -6.192000000     1.681000000
H     6.836000000    -7.158000000     2.126000000
O     8.587000000    -0.564000000     5.253000000
H     9.261000000     0.101000000     5.393000000
H     9.072000000    -1.386000000     5.188000000
O     1.978000000    -4.419000000     7.296000000
H     2.326000000    -4.346000000     6.407000000
H     2.428000000    -3.732000000     7.787000000
O     9.912000000    -2.835000000     2.599000000
H     9.151000000    -2.546000000     2.096000000
H    10.611000000    -2.232000000     2.345000000
O     3.519000000    -4.576000000     4.564000000
H     3.793000000    -4.077000000     3.795000000
H     3.211000000    -5.411000000     4.210000000
O     8.506000000     2.000000000     1.607000000
H     7.882000000     1.682000000     2.259000000
H     8.906000000     1.207000000     1.251000000
O     5.909000000    -3.392000000     7.481000000
H     6.007000000    -2.673000000     6.857000000
H     6.766000000    -3.819000000     7.491000000
O     9.494000000    -0.374000000     0.590000000
H     8.713000000    -0.904000000     0.748000000
H    10.095000000    -0.963000000     0.135000000
O     3.110000000    -7.288000000     5.293000000
H     2.754000000    -7.821000000     6.004000000
H     4.059000000    -7.378000000     5.377000000
O     7.572000000    -1.998000000     1.304000000
H     6.758000000    -1.726000000     1.726000000
H     7.406000000    -2.896000000     1.018000000
O     5.125000000    -6.529000000     2.727000000
H     4.608000000    -5.907000000     2.216000000
H     5.198000000    -6.127000000     3.592000000
O     4.578000000     0.001000000     4.610000000
H     3.698000000    -0.288000000     4.851000000
H     4.742000000    -0.413000000     3.763000000
