215
-1444.44282
C    -2.180000000    -4.098000000     2.717000000
H    -2.396000000    -4.666000000     1.815000000
C    -2.457000000    -2.739000000     2.754000000
C    -2.209000000    -1.977000000     3.876000000
H    -2.372000000    -0.902000000     3.881000000
C    -3.135000000    -2.133000000     1.561000000
O    -3.793000000    -3.084000000     0.654000000
H    -2.382000000    -1.567000000     0.993000000
O    -4.147000000    -1.189000000     1.965000000
C    -4.261000000     0.001000000     1.331000000
C    -3.679000000     1.122000000     1.957000000
H    -3.328000000     1.123000000     2.986000000
C    -3.591000000     2.314000000     1.263000000
O    -2.808000000     3.249000000     1.957000000
C    -4.125000000     2.486000000    -0.011000000
C    -3.966000000     3.809000000    -0.896000000
H    -4.819000000     3.878000000    -1.575000000
C    -2.600000000     3.858000000    -1.543000000
C    -2.440000000     3.460000000    -2.895000000
H    -3.275000000     3.022000000    -3.435000000
H    -3.931000000     4.651000000    -0.202000000
C    -4.832000000     1.399000000    -0.610000000
H    -5.364000000     1.543000000    -1.547000000
C    -4.852000000     0.138000000     0.049000000
C    -5.351000000    -1.040000000    -0.764000000
H    -5.964000000    -0.831000000    -1.643000000
H    -5.992000000    -1.676000000    -0.150000000
C    -4.223000000    -1.888000000    -1.392000000
C    -3.911000000    -1.677000000    -2.705000000
H    -4.211000000    -0.696000000    -3.062000000
C    -3.590000000    -2.924000000    -0.673000000
C    -2.686000000    -3.730000000    -1.237000000
H    -2.083000000    -4.302000000    -0.537000000
C    -2.346000000    -3.540000000    -2.583000000
O    -1.161000000    -4.132000000    -3.022000000
C    -0.060000000    -3.296000000    -2.840000000
C     1.019000000    -4.038000000    -2.062000000
C     2.260000000    -3.450000000    -2.007000000
H     2.438000000    -2.506000000    -2.517000000
C     0.742000000    -5.157000000    -1.272000000
H    -0.255000000    -5.589000000    -1.265000000
O     0.415000000    -2.748000000    -4.076000000
H    -0.380000000    -2.427000000    -2.246000000
C    -2.887000000    -2.477000000    -3.289000000
C    -2.435000000    -2.032000000    -4.637000000
H    -3.262000000    -1.488000000    -5.099000000
H    -2.269000000    -2.920000000    -5.251000000
C    -1.223000000    -1.046000000    -4.582000000
C    -1.560000000     0.321000000    -4.785000000
H    -2.588000000     0.657000000    -4.896000000
C     0.082000000    -1.463000000    -4.363000000
C     1.131000000    -0.541000000    -4.283000000
H     2.178000000    -0.812000000    -4.170000000
C     0.779000000     0.827000000    -4.325000000
O     1.783000000     1.665000000    -4.004000000
C     1.698000000     2.416000000    -2.760000000
C     3.116000000     2.573000000    -2.158000000
C     4.095000000     1.696000000    -2.485000000
H     3.909000000     0.788000000    -3.054000000
C     3.500000000     3.786000000    -1.508000000
H     2.801000000     4.575000000    -1.243000000
O     1.151000000     3.651000000    -3.074000000
H     1.227000000     1.800000000    -1.979000000
C    -0.542000000     1.260000000    -4.647000000
C    -0.906000000     2.699000000    -4.778000000
H    -1.654000000     2.692000000    -5.574000000
H    -0.034000000     3.149000000    -5.256000000
C    -1.195000000     3.449000000    -3.465000000
C    -0.115000000     3.905000000    -2.699000000
C    -0.275000000     4.363000000    -1.388000000
H     0.610000000     4.648000000    -0.824000000
C    -1.542000000     4.396000000    -0.853000000
O    -1.614000000     4.698000000     0.477000000
C    -1.501000000     3.603000000     1.459000000
H    -0.933000000     2.759000000     1.042000000
C    -0.581000000     3.971000000     2.581000000
C    -0.733000000     3.379000000     3.821000000
H    -1.643000000     2.793000000     3.920000000
C     0.560000000     4.840000000     2.425000000
H     0.805000000     5.231000000     1.440000000
C     1.521000000     4.887000000     3.458000000
O     2.807000000     5.374000000     3.252000000
C     1.360000000     4.248000000     4.666000000
H     2.124000000     4.107000000     5.426000000
C     0.221000000     3.468000000     4.845000000
O    -0.059000000     2.810000000     5.992000000
C    -1.042000000     1.827000000     6.215000000
C    -0.683000000     0.509000000     6.191000000
H     0.345000000     0.300000000     5.908000000
C    -2.367000000     2.175000000     6.571000000
H    -2.678000000     3.214000000     6.634000000
C    -3.312000000     1.167000000     6.789000000
H    -4.350000000     1.402000000     7.010000000
C    -2.993000000    -0.174000000     6.593000000
H    -3.718000000    -0.955000000     6.810000000
C    -1.666000000    -0.496000000     6.324000000
O    -1.380000000    -1.824000000     6.128000000
C    -1.708000000    -2.584000000     4.994000000
C    -1.318000000    -3.947000000     4.954000000
H    -0.777000000    -4.385000000     5.789000000
C    -1.645000000    -4.677000000     3.844000000
O    -1.476000000    -6.011000000     3.828000000
C    -1.169000000    -6.730000000     2.659000000
C     0.003000000    -6.418000000     1.930000000
H     0.586000000    -5.521000000     2.126000000
C    -1.887000000    -7.912000000     2.302000000
H    -2.831000000    -8.193000000     2.762000000
C    -1.398000000    -8.782000000     1.296000000
H    -1.926000000    -9.704000000     1.068000000
C    -0.350000000    -8.332000000     0.537000000
H     0.041000000    -8.864000000    -0.326000000
C     0.349000000    -7.188000000     0.889000000
O     1.510000000    -6.919000000     0.137000000
C     1.716000000    -5.788000000    -0.577000000
C     2.984000000    -5.221000000    -0.647000000
H     3.778000000    -5.764000000    -0.140000000
C     3.254000000    -4.039000000    -1.311000000
O     4.339000000    -3.259000000    -1.044000000
C     5.201000000    -2.626000000    -1.889000000
C     5.305000000    -1.235000000    -1.757000000
H     4.831000000    -0.713000000    -0.930000000
C     5.766000000    -3.282000000    -2.996000000
H     5.465000000    -4.307000000    -3.195000000
C     6.595000000    -2.525000000    -3.866000000
H     7.102000000    -3.067000000    -4.659000000
C     6.790000000    -1.195000000    -3.623000000
H     7.548000000    -0.615000000    -4.144000000
C     6.142000000    -0.495000000    -2.572000000
O     6.340000000     0.871000000    -2.343000000
C     5.390000000     1.830000000    -2.020000000
C     5.894000000     3.098000000    -1.664000000
H     6.957000000     3.129000000    -1.443000000
C     4.919000000     4.000000000    -1.282000000
O     5.390000000     5.166000000    -0.724000000
C     4.637000000     5.924000000     0.102000000
C     4.214000000     7.191000000    -0.262000000
H     4.539000000     7.689000000    -1.173000000
C     3.307000000     7.862000000     0.552000000
H     2.944000000     8.816000000     0.179000000
C     2.784000000     7.297000000     1.736000000
H     2.130000000     7.905000000     2.356000000
C     3.340000000     6.008000000     2.102000000
C     4.181000000     5.341000000     1.299000000
H     4.484000000     4.334000000     1.574000000
C     2.581000000     0.434000000     0.875000000
H     3.348000000     1.189000000     1.027000000
C     1.333000000     0.810000000     0.373000000
H     1.202000000     1.874000000     0.199000000
C     0.307000000    -0.114000000     0.185000000
H    -0.688000000     0.178000000    -0.128000000
C     0.532000000    -1.453000000     0.522000000
H    -0.208000000    -2.219000000     0.308000000
C     1.708000000    -1.795000000     1.052000000
H     1.841000000    -2.833000000     1.345000000
C     2.768000000    -0.907000000     1.186000000
C     4.058000000    -1.384000000     1.881000000
O     4.021000000    -2.397000000     2.514000000
O     5.055000000    -0.734000000     1.954000000
O     7.034000000    -5.548000000    -0.642000000
H     6.385000000    -5.399000000     0.045000000
H     6.834000000    -6.424000000    -0.974000000
O     2.511000000    -0.440000000     4.369000000
H     3.264000000    -1.010000000     4.216000000
H     2.065000000    -0.400000000     3.522000000
O     7.054000000     1.084000000     1.533000000
H     7.709000000     0.391000000     1.452000000
H     6.236000000     0.621000000     1.714000000
O     5.565000000    -7.348000000     2.354000000
H     5.454000000    -6.440000000     2.071000000
H     4.678000000    -7.707000000     2.358000000
O     8.957000000    -3.707000000    -1.245000000
H     8.842000000    -3.747000000    -2.194000000
H     8.216000000    -4.200000000    -0.893000000
O     6.297000000    -0.733000000     4.434000000
H     6.064000000    -1.552000000     4.871000000
H     5.787000000    -0.740000000     3.624000000
O     2.841000000    -4.616000000     3.298000000
H     3.435000000    -3.980000000     2.899000000
H     2.307000000    -4.099000000     3.901000000
O     8.944000000    -0.065000000     5.069000000
H     8.816000000     0.622000000     5.724000000
H     8.058000000    -0.303000000     4.796000000
O     7.565000000    -3.501000000     5.758000000
H     6.614000000    -3.491000000     5.652000000
H     7.905000000    -3.329000000     4.879000000
O     8.137000000    -2.873000000     3.111000000
H     8.251000000    -2.341000000     2.323000000
H     9.027000000    -3.026000000     3.428000000
O     2.621000000     1.321000000     6.336000000
H     2.719000000     0.968000000     5.452000000
H     2.588000000     0.548000000     6.900000000
O     1.561000000    -3.360000000     5.834000000
H     1.458000000    -2.439000000     6.074000000
H     1.316000000    -3.842000000     6.624000000
O     4.995000000    -3.221000000     5.151000000
H     4.352000000    -3.767000000     5.603000000
H     4.638000000    -3.110000000     4.270000000
O     8.332000000     3.477000000     1.817000000
H     8.141000000     2.545000000     1.718000000
H     8.433000000     3.798000000     0.921000000
O     9.018000000     0.967000000    -1.235000000
H     8.100000000     1.223000000    -1.312000000
H     9.319000000     0.877000000    -2.139000000
O     2.001000000    -6.888000000     4.883000000
H     2.570000000    -7.651000000     4.789000000
H     2.045000000    -6.450000000     4.033000000
O     7.972000000    -1.627000000     0.605000000
H     8.350000000    -2.212000000    -0.052000000
H     7.031000000    -1.650000000     0.433000000
O     5.698000000    -4.719000000     1.821000000
H     4.990000000    -4.090000000     1.958000000
H     6.441000000    -4.352000000     2.300000000
O     6.410000000     1.999000000     4.254000000
H     6.886000000     1.886000000     3.431000000
H     6.384000000     1.122000000     4.637000000
