215
-1443.53837
C    -0.697000000    -3.995000000     2.187000000
H    -0.397000000    -4.282000000     1.183000000
C    -1.820000000    -3.190000000     2.460000000
C    -2.071000000    -2.764000000     3.744000000
H    -2.913000000    -2.134000000     4.018000000
C    -2.733000000    -2.810000000     1.283000000
O    -3.116000000    -3.930000000     0.422000000
H    -1.999000000    -2.212000000     0.722000000
O    -3.919000000    -2.096000000     1.787000000
C    -4.291000000    -1.012000000     1.126000000
C    -4.040000000     0.203000000     1.889000000
H    -3.544000000     0.113000000     2.852000000
C    -4.405000000     1.391000000     1.321000000
O    -3.973000000     2.511000000     2.034000000
C    -4.870000000     1.506000000    -0.011000000
C    -4.893000000     2.822000000    -0.713000000
H    -5.662000000     2.894000000    -1.486000000
C    -3.546000000     3.226000000    -1.243000000
C    -3.118000000     2.761000000    -2.472000000
H    -3.831000000     2.236000000    -3.104000000
H    -5.160000000     3.543000000     0.062000000
C    -5.128000000     0.352000000    -0.671000000
H    -5.529000000     0.479000000    -1.673000000
C    -4.898000000    -0.954000000    -0.147000000
C    -5.149000000    -2.228000000    -0.934000000
H    -5.920000000    -1.943000000    -1.653000000
H    -5.626000000    -3.001000000    -0.327000000
C    -3.888000000    -2.722000000    -1.596000000
C    -3.614000000    -2.387000000    -2.922000000
H    -4.211000000    -1.711000000    -3.528000000
C    -2.957000000    -3.604000000    -0.931000000
C    -1.870000000    -4.148000000    -1.550000000
H    -1.079000000    -4.694000000    -1.042000000
C    -1.617000000    -3.732000000    -2.873000000
O    -0.483000000    -4.071000000    -3.443000000
C     0.649000000    -3.163000000    -3.137000000
C     2.002000000    -3.777000000    -2.696000000
C     3.213000000    -3.092000000    -2.751000000
H     3.191000000    -2.094000000    -3.180000000
C     1.990000000    -5.021000000    -2.124000000
H     1.097000000    -5.635000000    -2.034000000
O     0.911000000    -2.321000000    -4.280000000
H     0.319000000    -2.464000000    -2.354000000
C    -2.472000000    -2.820000000    -3.493000000
C    -1.963000000    -2.198000000    -4.847000000
H    -2.867000000    -1.924000000    -5.395000000
H    -1.373000000    -2.907000000    -5.430000000
C    -1.052000000    -0.946000000    -4.603000000
C    -1.552000000     0.356000000    -4.662000000
H    -2.571000000     0.508000000    -5.007000000
C     0.331000000    -1.105000000    -4.381000000
C     1.180000000     0.003000000    -4.216000000
H     2.247000000    -0.157000000    -4.080000000
C     0.651000000     1.295000000    -4.178000000
O     1.458000000     2.368000000    -3.841000000
C     1.238000000     2.954000000    -2.505000000
C     2.557000000     3.210000000    -1.888000000
C     3.568000000     2.220000000    -2.000000000
H     3.347000000     1.306000000    -2.547000000
C     2.806000000     4.352000000    -1.100000000
H     2.110000000     5.183000000    -1.018000000
O     0.419000000     4.094000000    -2.528000000
H     0.765000000     2.208000000    -1.849000000
C    -0.747000000     1.460000000    -4.372000000
C    -1.510000000     2.793000000    -4.335000000
H    -2.401000000     2.568000000    -4.926000000
H    -0.979000000     3.627000000    -4.798000000
C    -1.884000000     3.184000000    -2.939000000
C    -0.939000000     3.924000000    -2.130000000
C    -1.382000000     4.412000000    -0.889000000
H    -0.716000000     4.993000000    -0.256000000
C    -2.659000000     4.036000000    -0.440000000
O    -3.035000000     4.241000000     0.878000000
C    -2.695000000     3.125000000     1.733000000
H    -2.148000000     2.329000000     1.207000000
C    -1.763000000     3.581000000     2.892000000
C    -1.582000000     2.702000000     3.999000000
H    -2.145000000     1.775000000     3.917000000
C    -0.975000000     4.739000000     2.893000000
H    -1.053000000     5.337000000     1.988000000
C    -0.034000000     4.978000000     3.956000000
O     0.980000000     5.970000000     3.820000000
C     0.127000000     4.137000000     5.007000000
H     0.803000000     4.250000000     5.851000000
C    -0.654000000     3.017000000     5.037000000
O    -0.351000000     2.128000000     6.032000000
C    -1.249000000     1.149000000     6.333000000
C    -0.853000000    -0.133000000     6.028000000
H     0.121000000    -0.309000000     5.577000000
C    -2.501000000     1.374000000     6.894000000
H    -2.867000000     2.363000000     7.158000000
C    -3.314000000     0.302000000     7.283000000
H    -4.271000000     0.533000000     7.743000000
C    -2.917000000    -0.988000000     7.000000000
H    -3.540000000    -1.784000000     7.399000000
C    -1.693000000    -1.213000000     6.349000000
O    -1.306000000    -2.550000000     6.051000000
C    -1.199000000    -3.120000000     4.824000000
C    -0.115000000    -3.945000000     4.556000000
H     0.555000000    -4.168000000     5.383000000
C     0.140000000    -4.343000000     3.285000000
O     1.308000000    -4.980000000     3.127000000
C     1.357000000    -5.895000000     2.203000000
C     2.143000000    -5.736000000     1.038000000
H     2.561000000    -4.763000000     0.792000000
C     0.789000000    -7.147000000     2.487000000
H     0.264000000    -7.290000000     3.428000000
C     1.088000000    -8.248000000     1.688000000
H     0.636000000    -9.218000000     1.883000000
C     1.850000000    -8.135000000     0.565000000
H     2.092000000    -8.867000000    -0.202000000
C     2.314000000    -6.830000000     0.222000000
O     3.123000000    -6.678000000    -0.867000000
C     3.158000000    -5.539000000    -1.571000000
C     4.414000000    -4.904000000    -1.841000000
H     5.344000000    -5.339000000    -1.484000000
C     4.420000000    -3.685000000    -2.473000000
O     5.692000000    -3.047000000    -2.562000000
C     5.843000000    -1.776000000    -2.967000000
C     5.736000000    -0.757000000    -2.040000000
H     5.502000000    -1.078000000    -1.028000000
C     6.105000000    -1.429000000    -4.278000000
H     6.110000000    -2.175000000    -5.069000000
C     6.398000000    -0.068000000    -4.609000000
H     6.744000000     0.213000000    -5.600000000
C     6.287000000     0.899000000    -3.633000000
H     6.705000000     1.852000000    -3.949000000
C     5.874000000     0.602000000    -2.330000000
O     5.824000000     1.534000000    -1.373000000
C     4.789000000     2.450000000    -1.325000000
C     5.006000000     3.634000000    -0.611000000
H     5.984000000     3.881000000    -0.206000000
C     4.023000000     4.589000000    -0.493000000
O     4.250000000     5.710000000     0.285000000
C     3.214000000     6.341000000     0.951000000
C     2.560000000     7.403000000     0.381000000
H     3.030000000     7.857000000    -0.488000000
C     1.456000000     7.981000000     0.878000000
H     0.936000000     8.687000000     0.236000000
C     0.925000000     7.430000000     2.064000000
H     0.051000000     7.856000000     2.551000000
C     1.595000000     6.441000000     2.694000000
C     2.763000000     5.901000000     2.198000000
H     3.194000000     5.044000000     2.708000000
C     2.340000000    -1.410000000     0.354000000
H     3.286000000    -1.753000000    -0.056000000
C     1.360000000    -0.788000000    -0.389000000
H     1.598000000    -0.625000000    -1.437000000
C     0.241000000    -0.253000000     0.199000000
H    -0.487000000     0.283000000    -0.379000000
C     0.076000000    -0.384000000     1.547000000
H    -0.828000000    -0.033000000     2.037000000
C     0.992000000    -1.040000000     2.325000000
H     0.777000000    -1.168000000     3.383000000
C     2.137000000    -1.557000000     1.760000000
C     3.163000000    -2.301000000     2.498000000
O     3.151000000    -2.167000000     3.644000000
O     4.121000000    -2.793000000     1.919000000
O     6.711000000    -1.892000000     1.467000000
H     7.255000000    -2.589000000     1.099000000
H     5.831000000    -2.267000000     1.501000000
O     3.346000000    -5.182000000     4.945000000
H     3.753000000    -5.847000000     4.390000000
H     2.827000000    -4.651000000     4.342000000
O     3.105000000     1.352000000     1.171000000
H     2.597000000     0.572000000     0.950000000
H     2.584000000     2.081000000     0.835000000
O     8.418000000    -3.701000000     3.772000000
H     7.463000000    -3.766000000     3.751000000
H     8.627000000    -3.028000000     3.125000000
O     8.486000000     0.590000000     4.655000000
H     7.737000000     0.185000000     4.217000000
H     8.111000000     1.022000000     5.422000000
O     5.915000000    -0.167000000     3.596000000
H     5.782000000    -1.050000000     3.250000000
H     5.684000000     0.412000000     2.870000000
O     5.765000000    -4.943000000     7.044000000
H     4.957000000    -4.519000000     6.753000000
H     6.036000000    -5.479000000     6.299000000
O     5.657000000     1.948000000     1.930000000
H     4.853000000     1.668000000     1.491000000
H     5.423000000     2.776000000     2.350000000
O     7.350000000    -4.015000000    -0.176000000
H     7.079000000    -3.875000000    -1.083000000
H     8.306000000    -4.055000000    -0.215000000
O     3.314000000    -1.808000000     8.927000000
H     2.668000000    -2.442000000     9.239000000
H     3.199000000    -1.796000000     7.976000000
O     2.536000000    -2.279000000     6.209000000
H     2.757000000    -2.318000000     5.278000000
H     2.429000000    -3.194000000     6.469000000
O     2.582000000    -4.896000000     7.516000000
H     2.890000000    -5.152000000     6.646000000
H     2.615000000    -5.704000000     8.029000000
O     4.009000000     2.057000000     7.020000000
H     3.868000000     1.136000000     6.800000000
H     3.621000000     2.539000000     6.289000000
O     8.000000000     0.451000000     1.356000000
H     7.592000000    -0.368000000     1.637000000
H     7.302000000     1.103000000     1.423000000
O     3.627000000     0.099000000     5.023000000
H     4.267000000     0.112000000     4.311000000
H     2.941000000    -0.495000000     4.717000000
O     5.848000000    -3.515000000     4.163000000
H     5.986000000    -3.101000000     5.015000000
H     5.160000000    -2.993000000     3.751000000
O     5.182000000    -8.009000000     2.090000000
H     5.185000000    -7.136000000     1.698000000
H     4.542000000    -7.951000000     2.800000000
O     5.918000000    -1.721000000     6.398000000
H     5.375000000    -1.836000000     7.178000000
H     5.665000000    -0.865000000     6.053000000
O     5.401000000    -5.126000000     1.630000000
H     5.750000000    -4.800000000     0.800000000
H     4.952000000    -4.372000000     2.013000000
