215
-1451.85940
C    -2.754000000    -4.464000000     1.445000000
H    -2.873000000    -4.745000000     0.402000000
C    -3.190000000    -3.190000000     1.856000000
C    -2.836000000    -2.711000000     3.136000000
H    -3.177000000    -1.738000000     3.479000000
C    -3.698000000    -2.164000000     0.870000000
O    -4.229000000    -2.712000000    -0.328000000
H    -2.784000000    -1.629000000     0.570000000
O    -4.432000000    -1.171000000     1.483000000
C    -4.419000000     0.161000000     1.138000000
C    -3.769000000     0.958000000     1.984000000
H    -3.293000000     0.444000000     2.816000000
C    -3.589000000     2.329000000     1.767000000
O    -2.824000000     3.091000000     2.635000000
C    -4.104000000     2.898000000     0.592000000
C    -3.573000000     4.197000000     0.104000000
H    -4.214000000     4.593000000    -0.686000000
C    -2.116000000     4.259000000    -0.446000000
C    -1.877000000     4.139000000    -1.787000000
H    -2.645000000     4.125000000    -2.556000000
H    -3.613000000     4.952000000     0.892000000
C    -4.731000000     2.053000000    -0.303000000
H    -4.950000000     2.382000000    -1.315000000
C    -4.792000000     0.682000000    -0.072000000
C    -5.394000000    -0.159000000    -1.197000000
H    -5.964000000     0.418000000    -1.929000000
H    -6.095000000    -0.864000000    -0.746000000
C    -4.272000000    -0.933000000    -1.982000000
C    -3.845000000    -0.371000000    -3.168000000
H    -4.388000000     0.507000000    -3.509000000
C    -3.775000000    -2.179000000    -1.572000000
C    -2.775000000    -2.749000000    -2.277000000
H    -2.361000000    -3.725000000    -2.036000000
C    -2.318000000    -2.211000000    -3.468000000
O    -1.297000000    -2.808000000    -4.098000000
C     0.067000000    -2.266000000    -3.944000000
C     1.079000000    -3.356000000    -3.611000000
C     2.440000000    -3.124000000    -3.883000000
H     2.752000000    -2.145000000    -4.239000000
C     0.687000000    -4.484000000    -2.891000000
H    -0.357000000    -4.598000000    -2.611000000
O     0.483000000    -1.336000000    -4.901000000
H     0.025000000    -1.646000000    -3.036000000
C    -2.779000000    -0.975000000    -3.892000000
C    -2.201000000    -0.245000000    -5.051000000
H    -3.003000000     0.445000000    -5.321000000
H    -1.878000000    -0.835000000    -5.912000000
C    -0.984000000     0.650000000    -4.662000000
C    -1.153000000     1.957000000    -4.395000000
H    -2.151000000     2.376000000    -4.503000000
C     0.294000000     0.069000000    -4.666000000
C     1.396000000     0.804000000    -4.231000000
H     2.380000000     0.373000000    -4.067000000
C     1.191000000     2.083000000    -3.932000000
O     2.278000000     2.752000000    -3.453000000
C     2.270000000     3.045000000    -2.065000000
C     3.624000000     2.749000000    -1.419000000
C     4.318000000     1.560000000    -1.699000000
H     4.109000000     0.966000000    -2.585000000
C     4.087000000     3.594000000    -0.345000000
H     3.588000000     4.526000000    -0.092000000
O     1.816000000     4.388000000    -1.839000000
H     1.597000000     2.329000000    -1.569000000
C    -0.074000000     2.730000000    -4.078000000
C    -0.226000000     4.128000000    -3.759000000
H    -1.002000000     4.577000000    -4.383000000
H     0.738000000     4.572000000    -4.015000000
C    -0.550000000     4.203000000    -2.286000000
C     0.472000000     4.390000000    -1.442000000
C     0.293000000     4.389000000    -0.093000000
H     1.175000000     4.304000000     0.537000000
C    -1.000000000     4.369000000     0.420000000
O    -1.129000000     4.380000000     1.782000000
C    -1.399000000     3.146000000     2.467000000
H    -1.020000000     2.282000000     1.902000000
C    -0.684000000     3.063000000     3.822000000
C    -1.205000000     2.262000000     4.885000000
H    -2.206000000     1.867000000     4.728000000
C     0.606000000     3.573000000     3.901000000
H     1.088000000     4.058000000     3.056000000
C     1.323000000     3.334000000     5.130000000
O     2.676000000     3.454000000     5.120000000
C     0.715000000     2.683000000     6.192000000
H     1.204000000     2.612000000     7.160000000
C    -0.586000000     2.187000000     6.073000000
O    -1.032000000     1.306000000     7.124000000
C    -1.791000000     0.210000000     6.778000000
C    -1.268000000    -0.832000000     5.992000000
H    -0.243000000    -0.808000000     5.630000000
C    -3.077000000     0.062000000     7.285000000
H    -3.501000000     0.856000000     7.895000000
C    -3.882000000    -1.057000000     7.067000000
H    -4.876000000    -1.145000000     7.496000000
C    -3.296000000    -2.126000000     6.424000000
H    -3.702000000    -3.128000000     6.319000000
C    -2.000000000    -2.025000000     5.856000000
O    -1.499000000    -3.101000000     5.224000000
C    -2.011000000    -3.487000000     4.003000000
C    -1.591000000    -4.739000000     3.571000000
H    -1.022000000    -5.423000000     4.196000000
C    -1.904000000    -5.222000000     2.292000000
O    -1.607000000    -6.458000000     1.902000000
C    -1.223000000    -6.790000000     0.660000000
C     0.005000000    -6.426000000     0.098000000
H     0.800000000    -5.945000000     0.661000000
C    -2.136000000    -7.583000000    -0.008000000
H    -3.036000000    -7.715000000     0.587000000
C    -1.871000000    -7.992000000    -1.301000000
H    -2.595000000    -8.590000000    -1.848000000
C    -0.689000000    -7.597000000    -1.932000000
H    -0.417000000    -7.858000000    -2.951000000
C     0.208000000    -6.864000000    -1.176000000
O     1.454000000    -6.554000000    -1.716000000
C     1.693000000    -5.420000000    -2.592000000
C     3.002000000    -5.184000000    -2.830000000
H     3.810000000    -5.815000000    -2.470000000
C     3.409000000    -4.030000000    -3.562000000
O     4.742000000    -3.806000000    -3.749000000
C     5.332000000    -2.565000000    -3.642000000
C     5.543000000    -1.906000000    -2.419000000
H     5.307000000    -2.448000000    -1.507000000
C     5.771000000    -1.974000000    -4.808000000
H     5.776000000    -2.523000000    -5.745000000
C     6.429000000    -0.707000000    -4.744000000
H     6.783000000    -0.279000000    -5.678000000
C     6.519000000     0.007000000    -3.574000000
H     6.979000000     0.992000000    -3.567000000
C     6.016000000    -0.613000000    -2.438000000
O     6.106000000     0.038000000    -1.222000000
C     5.481000000     1.263000000    -0.947000000
C     5.738000000     1.946000000     0.217000000
H     6.515000000     1.606000000     0.897000000
C     5.097000000     3.121000000     0.457000000
O     5.581000000     3.918000000     1.456000000
C     4.826000000     4.585000000     2.373000000
C     4.391000000     5.917000000     2.231000000
H     4.811000000     6.512000000     1.424000000
C     3.468000000     6.488000000     3.116000000
H     3.088000000     7.494000000     2.962000000
C     2.995000000     5.640000000     4.145000000
H     2.262000000     6.058000000     4.830000000
C     3.319000000     4.295000000     4.276000000
C     4.260000000     3.749000000     3.409000000
H     4.604000000     2.726000000     3.533000000
C     1.995000000    -1.364000000    -0.074000000
H     2.879000000    -1.615000000    -0.653000000
C     1.197000000    -0.329000000    -0.508000000
H     1.448000000     0.151000000    -1.451000000
C    -0.023000000    -0.001000000     0.068000000
H    -0.640000000     0.802000000    -0.394000000
C    -0.390000000    -0.655000000     1.225000000
H    -1.374000000    -0.404000000     1.612000000
C     0.404000000    -1.644000000     1.820000000
H     0.178000000    -2.117000000     2.773000000
C     1.556000000    -2.054000000     1.099000000
C     2.494000000    -3.163000000     1.670000000
O     2.352000000    -3.627000000     2.789000000
O     3.495000000    -3.473000000     0.968000000
O     0.431000000    -7.921000000     3.790000000
H    -0.185000000    -7.822000000     4.517000000
H    -0.117000000    -8.166000000     3.044000000
O     5.631000000    -1.844000000     1.091000000
H     6.008000000    -1.513000000     0.275000000
H     5.010000000    -2.517000000     0.812000000
O     4.550000000    -3.604000000     4.323000000
H     5.020000000    -4.241000000     3.784000000
H     3.763000000    -3.398000000     3.819000000
O     5.641000000     0.054000000     2.967000000
H     5.608000000    -0.648000000     2.317000000
H     5.789000000    -0.395000000     3.798000000
O     2.665000000    -0.319000000     4.656000000
H     3.005000000     0.172000000     3.908000000
H     2.756000000     0.280000000     5.397000000
O     7.650000000    -2.056000000     3.215000000
H     7.031000000    -1.936000000     2.494000000
H     8.384000000    -1.481000000     2.998000000
O     3.156000000    -6.672000000     6.430000000
H     2.736000000    -6.563000000     7.284000000
H     2.673000000    -6.084000000     5.849000000
O     4.180000000    -8.249000000    -1.726000000
H     4.681000000    -7.797000000    -1.046000000
H     4.637000000    -8.038000000    -2.540000000
O     5.771000000    -5.550000000     6.778000000
H     5.013000000    -5.829000000     6.264000000
H     6.253000000    -4.964000000     6.195000000
O    -0.023000000    -3.167000000     7.807000000
H    -0.262000000    -3.215000000     6.882000000
H     0.802000000    -2.681000000     7.817000000
O     6.407000000    -7.341000000     0.085000000
H     6.479000000    -7.943000000     0.826000000
H     6.873000000    -6.555000000     0.369000000
O     2.904000000     1.399000000     2.003000000
H     2.318000000     0.845000000     1.488000000
H     3.781000000     1.175000000     1.692000000
O     1.689000000    -2.564000000     5.668000000
H     2.033000000    -1.695000000     5.461000000
H     2.056000000    -3.133000000     4.991000000
O     4.446000000    -2.451000000     7.110000000
H     4.045000000    -2.323000000     6.250000000
H     4.684000000    -3.378000000     7.128000000
O     5.758000000    -5.514000000     2.972000000
H     6.561000000    -5.568000000     2.454000000
H     5.079000000    -5.281000000     2.338000000
O     1.661000000    -5.506000000     4.328000000
H     1.220000000    -6.158000000     3.783000000
H     1.985000000    -4.854000000     3.707000000
O     4.261000000    -7.884000000     4.140000000
H     3.816000000    -7.454000000     4.871000000
H     4.955000000    -7.274000000     3.890000000
O     4.305000000    -8.875000000     1.558000000
H     4.045000000    -8.126000000     1.021000000
H     3.915000000    -8.701000000     2.415000000
O     3.483000000    -6.134000000     0.716000000
H     2.822000000    -6.256000000     0.034000000
H     3.495000000    -5.190000000     0.871000000
