215
-1468.44900
C    -1.286000000    -4.393000000     2.700000000
H    -1.176000000    -4.966000000     1.782000000
C    -2.154000000    -3.333000000     2.736000000
C    -2.187000000    -2.551000000     3.890000000
H    -2.710000000    -1.600000000     3.945000000
C    -2.782000000    -2.795000000     1.451000000
O    -2.946000000    -3.882000000     0.525000000
H    -2.078000000    -2.069000000     1.020000000
O    -4.051000000    -2.179000000     1.734000000
C    -4.443000000    -1.057000000     1.023000000
C    -4.138000000     0.123000000     1.726000000
H    -3.836000000    -0.013000000     2.761000000
C    -4.301000000     1.347000000     1.089000000
O    -3.938000000     2.556000000     1.741000000
C    -4.689000000     1.360000000    -0.245000000
C    -4.716000000     2.698000000    -0.971000000
H    -5.423000000     2.782000000    -1.800000000
C    -3.305000000     3.154000000    -1.422000000
C    -2.936000000     2.638000000    -2.673000000
H    -3.484000000     1.933000000    -3.293000000
H    -5.058000000     3.440000000    -0.247000000
C    -5.076000000     0.173000000    -0.884000000
H    -5.300000000     0.109000000    -1.945000000
C    -4.829000000    -1.035000000    -0.308000000
C    -5.004000000    -2.404000000    -1.050000000
H    -5.689000000    -2.306000000    -1.894000000
H    -5.410000000    -3.178000000    -0.395000000
C    -3.617000000    -2.850000000    -1.563000000
C    -3.173000000    -2.466000000    -2.827000000
H    -3.756000000    -1.771000000    -3.426000000
C    -2.752000000    -3.679000000    -0.798000000
C    -1.442000000    -4.082000000    -1.235000000
H    -0.855000000    -4.782000000    -0.645000000
C    -1.080000000    -3.683000000    -2.516000000
O     0.103000000    -4.104000000    -2.972000000
C     1.078000000    -3.045000000    -2.869000000
C     2.461000000    -3.481000000    -2.356000000
C     3.717000000    -2.957000000    -2.800000000
H     3.636000000    -2.071000000    -3.423000000
C     2.459000000    -4.363000000    -1.235000000
H     1.558000000    -4.739000000    -0.758000000
O     1.279000000    -2.373000000    -4.154000000
H     0.666000000    -2.318000000    -2.154000000
C    -1.927000000    -2.894000000    -3.342000000
C    -1.444000000    -2.403000000    -4.722000000
H    -2.249000000    -2.176000000    -5.424000000
H    -0.901000000    -3.233000000    -5.179000000
C    -0.721000000    -1.113000000    -4.593000000
C    -1.271000000     0.135000000    -4.799000000
H    -2.355000000     0.074000000    -4.859000000
C     0.643000000    -1.144000000    -4.355000000
C     1.441000000     0.076000000    -4.277000000
H     2.516000000     0.018000000    -4.130000000
C     0.791000000     1.316000000    -4.550000000
O     1.508000000     2.490000000    -4.271000000
C     1.347000000     3.009000000    -2.933000000
C     2.723000000     3.447000000    -2.488000000
C     3.811000000     2.559000000    -2.696000000
H     3.848000000     1.717000000    -3.383000000
C     2.766000000     4.453000000    -1.557000000
H     1.924000000     5.105000000    -1.337000000
O     0.338000000     4.061000000    -2.983000000
H     0.929000000     2.215000000    -2.298000000
C    -0.573000000     1.334000000    -4.777000000
C    -1.365000000     2.630000000    -4.694000000
H    -2.239000000     2.524000000    -5.341000000
H    -0.753000000     3.409000000    -5.154000000
C    -1.722000000     2.997000000    -3.229000000
C    -0.841000000     3.835000000    -2.516000000
C    -1.110000000     4.209000000    -1.215000000
H    -0.311000000     4.715000000    -0.681000000
C    -2.386000000     3.842000000    -0.677000000
O    -2.666000000     4.170000000     0.684000000
C    -2.544000000     3.033000000     1.579000000
H    -1.997000000     2.164000000     1.185000000
C    -1.940000000     3.437000000     2.859000000
C    -2.320000000     2.896000000     4.103000000
H    -3.226000000     2.299000000     4.173000000
C    -0.693000000     4.100000000     2.811000000
H    -0.418000000     4.461000000     1.823000000
C     0.104000000     4.215000000     3.917000000
O     1.362000000     4.856000000     3.838000000
C    -0.323000000     3.675000000     5.120000000
H     0.298000000     3.796000000     6.004000000
C    -1.566000000     3.036000000     5.217000000
O    -2.070000000     2.638000000     6.418000000
C    -2.569000000     1.435000000     6.640000000
C    -1.751000000     0.328000000     6.252000000
H    -0.703000000     0.515000000     6.031000000
C    -3.815000000     1.236000000     7.240000000
H    -4.388000000     2.045000000     7.687000000
C    -4.207000000    -0.112000000     7.357000000
H    -5.179000000    -0.334000000     7.790000000
C    -3.486000000    -1.212000000     6.866000000
H    -3.850000000    -2.231000000     6.970000000
C    -2.258000000    -1.010000000     6.340000000
O    -1.372000000    -2.020000000     6.111000000
C    -1.502000000    -2.909000000     5.053000000
C    -0.619000000    -4.010000000     4.997000000
H     0.010000000    -4.328000000     5.825000000
C    -0.563000000    -4.777000000     3.851000000
O     0.343000000    -5.813000000     3.851000000
C     1.009000000    -6.353000000     2.760000000
C     2.187000000    -5.793000000     2.320000000
H     2.602000000    -5.078000000     3.026000000
C     0.366000000    -7.311000000     1.952000000
H    -0.566000000    -7.760000000     2.287000000
C     0.862000000    -7.689000000     0.729000000
H     0.440000000    -8.526000000     0.178000000
C     2.026000000    -7.070000000     0.305000000
H     2.437000000    -7.336000000    -0.666000000
C     2.694000000    -6.050000000     1.056000000
O     3.737000000    -5.329000000     0.540000000
C     3.693000000    -4.730000000    -0.645000000
C     4.894000000    -4.188000000    -1.055000000
H     5.858000000    -4.342000000    -0.576000000
C     4.849000000    -3.284000000    -2.162000000
O     6.050000000    -2.601000000    -2.393000000
C     6.135000000    -1.489000000    -3.077000000
C     5.978000000    -0.345000000    -2.347000000
H     6.026000000    -0.453000000    -1.266000000
C     6.222000000    -1.370000000    -4.406000000
H     6.229000000    -2.291000000    -4.984000000
C     6.254000000    -0.187000000    -5.130000000
H     6.265000000    -0.312000000    -6.209000000
C     6.271000000     0.960000000    -4.371000000
H     6.182000000     1.979000000    -4.737000000
C     6.094000000     0.884000000    -2.983000000
O     6.110000000     2.005000000    -2.140000000
C     4.987000000     2.832000000    -1.987000000
C     5.114000000     3.909000000    -1.204000000
H     6.052000000     4.184000000    -0.728000000
C     3.994000000     4.753000000    -0.975000000
O     4.067000000     5.794000000     0.032000000
C     2.998000000     6.159000000     0.820000000
C     2.350000000     7.390000000     0.726000000
H     2.636000000     8.025000000    -0.109000000
C     1.393000000     7.831000000     1.585000000
H     0.858000000     8.777000000     1.545000000
C     1.065000000     7.027000000     2.698000000
H     0.291000000     7.293000000     3.413000000
C     1.680000000     5.765000000     2.849000000
C     2.613000000     5.347000000     1.922000000
H     3.195000000     4.434000000     2.021000000
C     3.110000000    -0.672000000    -0.217000000
H     3.890000000    -0.235000000    -0.835000000
C     1.821000000    -0.406000000    -0.636000000
H     1.646000000     0.169000000    -1.542000000
C     0.732000000    -0.773000000     0.126000000
H    -0.280000000    -0.493000000    -0.172000000
C     0.876000000    -1.436000000     1.333000000
H     0.005000000    -1.719000000     1.917000000
C     2.188000000    -1.743000000     1.715000000
H     2.420000000    -2.292000000     2.624000000
C     3.330000000    -1.383000000     0.953000000
C     4.716000000    -1.590000000     1.507000000
O     4.847000000    -2.138000000     2.566000000
O     5.691000000    -1.071000000     0.935000000
O     7.993000000    -2.091000000    -0.194000000
H     7.805000000    -2.801000000    -0.808000000
H     7.131000000    -1.776000000     0.079000000
O     8.975000000    -5.269000000     0.690000000
H     8.246000000    -5.080000000     1.281000000
H     8.558000000    -5.494000000    -0.141000000
O     2.657000000    -3.325000000     5.882000000
H     2.524000000    -4.232000000     6.156000000
H     3.310000000    -3.379000000     5.184000000
O     2.086000000     1.754000000     2.557000000
H     2.167000000     1.641000000     1.610000000
H     1.468000000     1.075000000     2.827000000
O    10.500000000    -1.195000000     2.994000000
H     9.845000000    -0.521000000     2.813000000
H    10.239000000    -1.562000000     3.839000000
O     7.520000000    -3.069000000     5.177000000
H     7.662000000    -2.839000000     4.259000000
H     7.569000000    -2.235000000     5.643000000
O     7.090000000    -0.577000000     6.367000000
H     6.235000000    -0.352000000     5.999000000
H     6.888000000    -0.976000000     7.214000000
O     6.700000000    -4.870000000     2.083000000
H     6.371000000    -4.048000000     2.445000000
H     5.913000000    -5.385000000     1.904000000
O     9.071000000     0.687000000    -0.978000000
H     8.114000000     0.696000000    -0.970000000
H     9.308000000    -0.096000000    -0.481000000
O     4.842000000    -0.228000000     4.928000000
H     4.786000000    -0.783000000     4.150000000
H     4.709000000     0.661000000     4.598000000
O     8.806000000     3.131000000     0.442000000
H     7.993000000     2.773000000     0.797000000
H     9.079000000     2.496000000    -0.221000000
O     4.787000000     2.182000000     3.163000000
H     3.852000000     2.039000000     3.313000000
H     4.951000000     3.062000000     3.503000000
O     9.031000000     1.235000000     3.277000000
H     9.073000000     2.183000000     3.401000000
H     8.220000000     1.093000000     2.788000000
O     1.118000000    -1.150000000     4.926000000
H     1.823000000    -1.798000000     4.920000000
H     0.419000000    -1.561000000     5.435000000
O     6.940000000     1.122000000     1.615000000
H     6.615000000     0.227000000     1.518000000
H     6.187000000     1.617000000     1.938000000
O     2.805000000     0.318000000     6.840000000
H     3.586000000     0.046000000     6.358000000
H     2.079000000     0.121000000     6.249000000
O     7.560000000    -2.122000000     2.776000000
H     6.762000000    -1.662000000     2.515000000
H     7.810000000    -2.626000000     2.001000000
O     4.657000000    -6.685000000     4.155000000
H     4.836000000    -5.789000000     4.440000000
H     4.764000000    -7.213000000     4.946000000
O     5.003000000    -3.767000000     4.400000000
H     5.952000000    -3.829000000     4.507000000
H     4.881000000    -3.107000000     3.718000000
