215
-1438.97609
C    -5.246000000     0.959000000    -0.863000000
H    -4.671000000     1.668000000    -1.452000000
C    -4.953000000     1.062000000     0.468000000
C    -5.461000000     0.129000000     1.348000000
H    -5.127000000     0.097000000     2.382000000
C    -3.866000000     1.974000000     0.930000000
O    -3.791000000     3.209000000     0.205000000
H    -2.921000000     1.461000000     0.693000000
O    -3.910000000     2.293000000     2.366000000
C    -2.759000000     2.363000000     3.130000000
C    -2.377000000     1.198000000     3.857000000
H    -3.038000000     0.353000000     4.036000000
C    -1.131000000     1.207000000     4.492000000
O    -0.732000000     0.042000000     4.983000000
C    -0.259000000     2.318000000     4.413000000
C     1.107000000     2.276000000     4.982000000
H     1.391000000     3.305000000     5.213000000
C     2.129000000     1.601000000     3.970000000
C     2.863000000     2.354000000     3.086000000
H     2.638000000     3.400000000     2.895000000
H     1.068000000     1.656000000     5.880000000
C    -0.631000000     3.443000000     3.632000000
H     0.095000000     4.234000000     3.461000000
C    -1.843000000     3.466000000     2.998000000
C    -2.209000000     4.655000000     2.087000000
H    -1.743000000     5.570000000     2.459000000
H    -3.275000000     4.851000000     2.223000000
C    -1.734000000     4.373000000     0.638000000
C    -0.490000000     4.757000000     0.243000000
H     0.111000000     5.196000000     1.035000000
C    -2.567000000     3.715000000    -0.194000000
C    -2.180000000     3.499000000    -1.523000000
H    -2.783000000     2.911000000    -2.209000000
C    -0.865000000     3.853000000    -1.911000000
O    -0.460000000     3.411000000    -3.123000000
C     0.497000000     2.408000000    -3.151000000
C     0.152000000     1.301000000    -4.114000000
C     1.154000000     0.612000000    -4.798000000
H     2.158000000     1.007000000    -4.670000000
C    -1.113000000     0.874000000    -4.290000000
H    -1.934000000     1.224000000    -3.669000000
O     1.816000000     2.912000000    -3.373000000
H     0.551000000     1.867000000    -2.194000000
C    -0.019000000     4.526000000    -1.032000000
C     1.361000000     5.130000000    -1.439000000
H     1.642000000     5.986000000    -0.822000000
H     1.411000000     5.437000000    -2.486000000
C     2.469000000     4.069000000    -1.337000000
C     3.249000000     3.925000000    -0.121000000
H     3.309000000     4.687000000     0.651000000
C     2.653000000     3.023000000    -2.277000000
C     3.671000000     2.059000000    -2.098000000
H     3.728000000     1.330000000    -2.902000000
C     4.394000000     1.945000000    -0.885000000
O     5.096000000     0.780000000    -0.611000000
C     4.441000000    -0.357000000     0.005000000
C     4.885000000    -1.654000000    -0.642000000
C     5.204000000    -1.593000000    -2.002000000
H     5.271000000    -0.655000000    -2.546000000
C     4.628000000    -2.914000000     0.000000000
H     4.240000000    -2.892000000     1.015000000
O     4.731000000    -0.349000000     1.397000000
H     3.374000000    -0.194000000    -0.206000000
C     4.143000000     2.892000000     0.145000000
C     4.794000000     2.748000000     1.492000000
H     4.717000000     3.724000000     1.975000000
H     5.840000000     2.457000000     1.371000000
C     3.860000000     1.764000000     2.265000000
C     3.999000000     0.369000000     2.298000000
C     3.182000000    -0.426000000     3.091000000
H     3.070000000    -1.506000000     3.137000000
C     2.283000000     0.203000000     3.904000000
O     1.459000000    -0.726000000     4.627000000
C     0.062000000    -0.743000000     4.124000000
H     0.137000000    -0.330000000     3.108000000
C    -0.427000000    -2.176000000     4.007000000
C    -1.636000000    -2.554000000     4.515000000
H    -2.240000000    -2.032000000     5.253000000
C     0.235000000    -3.078000000     3.162000000
H     1.091000000    -2.711000000     2.602000000
C    -0.255000000    -4.372000000     2.956000000
O     0.406000000    -5.274000000     2.211000000
C    -1.541000000    -4.646000000     3.361000000
H    -2.090000000    -5.540000000     3.075000000
C    -2.210000000    -3.770000000     4.173000000
O    -3.547000000    -4.111000000     4.547000000
C    -4.670000000    -3.248000000     4.349000000
C    -5.157000000    -2.974000000     3.054000000
H    -4.686000000    -3.425000000     2.184000000
C    -5.433000000    -2.718000000     5.424000000
H    -5.094000000    -2.918000000     6.437000000
C    -6.672000000    -2.060000000     5.226000000
H    -7.257000000    -1.702000000     6.069000000
C    -7.101000000    -1.786000000     3.934000000
H    -8.111000000    -1.390000000     3.863000000
C    -6.299000000    -2.258000000     2.869000000
O    -6.630000000    -2.024000000     1.574000000
C    -6.225000000    -0.938000000     0.812000000
C    -6.660000000    -0.901000000    -0.504000000
H    -7.298000000    -1.681000000    -0.910000000
C    -6.205000000     0.109000000    -1.370000000
O    -6.503000000     0.174000000    -2.726000000
C    -5.644000000     0.703000000    -3.620000000
C    -4.665000000    -0.176000000    -4.045000000
H    -4.533000000    -1.163000000    -3.609000000
C    -5.872000000     1.834000000    -4.372000000
H    -6.740000000     2.459000000    -4.178000000
C    -4.992000000     2.265000000    -5.383000000
H    -5.088000000     3.234000000    -5.865000000
C    -3.944000000     1.380000000    -5.797000000
H    -3.186000000     1.728000000    -6.493000000
C    -3.814000000     0.211000000    -5.078000000
O    -2.692000000    -0.630000000    -5.357000000
C    -1.408000000    -0.163000000    -5.150000000
C    -0.427000000    -0.782000000    -5.963000000
H    -0.672000000    -1.498000000    -6.743000000
C     0.867000000    -0.404000000    -5.731000000
O     1.938000000    -1.121000000    -6.244000000
C     3.314000000    -0.982000000    -6.062000000
C     3.920000000    -1.898000000    -5.186000000
H     3.295000000    -2.698000000    -4.798000000
C     4.072000000    -0.001000000    -6.711000000
H     3.581000000     0.744000000    -7.331000000
C     5.401000000     0.146000000    -6.362000000
H     5.915000000     1.007000000    -6.780000000
C     5.984000000    -0.693000000    -5.429000000
H     7.020000000    -0.625000000    -5.105000000
C     5.246000000    -1.767000000    -4.895000000
O     5.761000000    -2.656000000    -4.042000000
C     5.463000000    -2.746000000    -2.708000000
C     5.339000000    -3.926000000    -2.062000000
H     5.440000000    -4.854000000    -2.619000000
C     4.830000000    -4.074000000    -0.727000000
O     4.591000000    -5.285000000    -0.152000000
C     3.891000000    -5.494000000     1.061000000
C     4.553000000    -5.611000000     2.274000000
H     5.639000000    -5.594000000     2.243000000
C     3.850000000    -5.618000000     3.486000000
H     4.365000000    -5.799000000     4.426000000
C     2.471000000    -5.407000000     3.426000000
H     1.933000000    -5.328000000     4.368000000
C     1.775000000    -5.397000000     2.241000000
C     2.500000000    -5.506000000     1.031000000
H     2.000000000    -5.528000000     0.066000000
C    -0.997000000    -1.586000000    -1.689000000
H    -1.810000000    -1.618000000    -2.411000000
C    -0.902000000    -0.420000000    -0.959000000
H    -1.607000000     0.407000000    -0.976000000
C     0.166000000    -0.264000000    -0.029000000
H     0.256000000     0.535000000     0.633000000
C     0.982000000    -1.384000000     0.188000000
H     1.751000000    -1.318000000     0.954000000
C     0.854000000    -2.527000000    -0.595000000
H     1.491000000    -3.375000000    -0.357000000
C    -0.169000000    -2.651000000    -1.558000000
C    -0.225000000    -3.904000000    -2.376000000
O     0.619000000    -4.760000000    -2.249000000
O    -1.133000000    -4.117000000    -3.122000000
O     1.319000000    -7.597000000    -5.393000000
H     1.286000000    -6.694000000    -5.080000000
H     1.810000000    -7.549000000    -6.214000000
O    -1.060000000    -7.004000000    -7.370000000
H    -0.647000000    -7.152000000    -6.519000000
H    -1.438000000    -7.852000000    -7.604000000
O     4.225000000    -7.583000000    -2.977000000
H     4.604000000    -8.071000000    -2.246000000
H     4.739000000    -7.854000000    -3.738000000
O    -4.063000000    -6.870000000    -3.691000000
H    -3.983000000    -6.160000000    -4.328000000
H    -3.175000000    -7.214000000    -3.602000000
O    -0.931000000    -6.311000000    -0.631000000
H    -0.563000000    -5.570000000    -1.113000000
H    -0.531000000    -7.081000000    -1.034000000
O    -5.904000000    -3.584000000    -4.237000000
H    -4.969000000    -3.747000000    -4.362000000
H    -6.333000000    -4.127000000    -4.899000000
O    -5.427000000    -5.634000000     0.445000000
H    -6.093000000    -5.150000000    -0.042000000
H    -4.654000000    -5.070000000     0.419000000
O     0.319000000    -4.370000000    -8.404000000
H     0.273000000    -4.034000000    -7.509000000
H    -0.477000000    -4.893000000    -8.504000000
O     0.135000000    -4.065000000    -5.569000000
H    -0.485000000    -4.195000000    -4.853000000
H     0.968000000    -3.878000000    -5.135000000
O     4.669000000    -4.859000000    -5.942000000
H     4.375000000    -4.964000000    -5.037000000
H     3.938000000    -5.180000000    -6.470000000
O    -4.635000000    -5.553000000    -6.552000000
H    -4.047000000    -4.957000000    -6.088000000
H    -4.080000000    -5.975000000    -7.208000000
O    -3.097000000    -4.256000000     0.245000000
H    -3.009000000    -3.306000000     0.175000000
H    -2.262000000    -4.598000000    -0.075000000
O     1.324000000    -7.432000000    -2.047000000
H     2.103000000    -7.470000000    -2.601000000
H     1.084000000    -6.505000000    -2.033000000
O     0.888000000    -9.962000000    -0.288000000
H     1.002000000    -9.382000000    -1.041000000
H     0.084000000   -10.446000000    -0.479000000
O    -1.877000000    -8.124000000     1.555000000
H    -2.828000000    -8.157000000     1.453000000
H    -1.593000000    -7.450000000     0.937000000
O     2.718000000    -5.481000000    -3.894000000
H     2.138000000    -5.135000000    -3.215000000
H     3.379000000    -5.980000000    -3.414000000
O    -1.685000000    -9.388000000    -5.182000000
H    -0.968000000    -9.927000000    -4.848000000
H    -1.610000000    -8.564000000    -4.701000000
O    -3.247000000    -3.998000000    -4.706000000
H    -2.469000000    -3.956000000    -4.150000000
H    -3.045000000    -3.425000000    -5.446000000
O    -1.211000000    -6.892000000    -4.033000000
H    -1.073000000    -6.049000000    -3.601000000
H    -0.456000000    -7.421000000    -3.773000000
