215
-1461.79151
C    -1.982000000    -5.235000000     0.499000000
H    -1.831000000    -5.453000000    -0.555000000
C    -2.623000000    -4.037000000     0.894000000
C    -2.782000000    -3.719000000     2.210000000
H    -3.311000000    -2.817000000     2.508000000
C    -2.987000000    -2.957000000    -0.144000000
O    -3.210000000    -3.526000000    -1.437000000
H    -2.141000000    -2.256000000    -0.083000000
O    -4.319000000    -2.289000000     0.267000000
C    -4.501000000    -0.923000000     0.046000000
C    -4.330000000    -0.029000000     1.161000000
H    -4.348000000    -0.496000000     2.142000000
C    -4.314000000     1.319000000     1.038000000
O    -4.121000000     2.124000000     2.120000000
C    -4.422000000     1.876000000    -0.270000000
C    -4.423000000     3.380000000    -0.396000000
H    -4.830000000     3.656000000    -1.371000000
C    -3.019000000     3.898000000    -0.548000000
C    -2.485000000     3.907000000    -1.895000000
H    -3.125000000     3.759000000    -2.761000000
H    -4.853000000     3.964000000     0.420000000
C    -4.589000000     1.049000000    -1.357000000
H    -4.635000000     1.526000000    -2.333000000
C    -4.588000000    -0.358000000    -1.248000000
C    -4.806000000    -1.306000000    -2.460000000
H    -5.404000000    -0.911000000    -3.284000000
H    -5.364000000    -2.156000000    -2.061000000
C    -3.394000000    -1.736000000    -3.040000000
C    -2.836000000    -0.890000000    -3.998000000
H    -3.570000000    -0.184000000    -4.378000000
C    -2.649000000    -2.801000000    -2.463000000
C    -1.353000000    -3.043000000    -2.903000000
H    -0.656000000    -3.739000000    -2.443000000
C    -0.813000000    -2.236000000    -3.966000000
O     0.511000000    -2.440000000    -4.222000000
C     1.370000000    -1.579000000    -3.489000000
C     2.530000000    -2.384000000    -2.900000000
C     3.837000000    -1.837000000    -2.867000000
H     3.986000000    -0.863000000    -3.326000000
C     2.323000000    -3.600000000    -2.256000000
H     1.307000000    -3.958000000    -2.116000000
O     1.808000000    -0.647000000    -4.490000000
H     0.715000000    -0.999000000    -2.823000000
C    -1.550000000    -1.190000000    -4.557000000
C    -0.936000000    -0.208000000    -5.518000000
H    -1.785000000     0.300000000    -5.980000000
H    -0.442000000    -0.740000000    -6.334000000
C    -0.040000000     0.879000000    -4.953000000
C    -0.599000000     2.094000000    -4.524000000
H    -1.612000000     2.265000000    -4.878000000
C     1.278000000     0.579000000    -4.531000000
C     2.000000000     1.559000000    -3.825000000
H     3.003000000     1.202000000    -3.609000000
C     1.449000000     2.781000000    -3.471000000
O     2.174000000     3.579000000    -2.618000000
C     1.802000000     3.680000000    -1.229000000
C     3.134000000     3.853000000    -0.525000000
C     4.322000000     3.292000000    -1.039000000
H     4.364000000     2.913000000    -2.057000000
C     3.125000000     4.304000000     0.775000000
H     2.179000000     4.624000000     1.205000000
O     0.977000000     4.802000000    -0.981000000
H     1.404000000     2.713000000    -0.889000000
C     0.138000000     3.069000000    -3.899000000
C    -0.535000000     4.381000000    -3.462000000
H    -1.253000000     4.567000000    -4.263000000
H     0.072000000     5.273000000    -3.626000000
C    -1.188000000     4.314000000    -2.099000000
C    -0.368000000     4.631000000    -0.963000000
C    -0.930000000     4.560000000     0.323000000
H    -0.284000000     4.659000000     1.191000000
C    -2.210000000     4.126000000     0.494000000
O    -2.625000000     3.942000000     1.797000000
C    -2.768000000     2.580000000     2.229000000
H    -2.182000000     1.979000000     1.518000000
C    -2.297000000     2.362000000     3.654000000
C    -2.854000000     1.322000000     4.452000000
H    -3.734000000     0.789000000     4.099000000
C    -1.118000000     2.977000000     4.068000000
H    -0.653000000     3.702000000     3.406000000
C    -0.542000000     2.586000000     5.235000000
O     0.684000000     3.125000000     5.597000000
C    -1.056000000     1.552000000     5.968000000
H    -0.637000000     1.354000000     6.951000000
C    -2.228000000     0.916000000     5.632000000
O    -2.746000000    -0.059000000     6.452000000
C    -3.338000000    -1.251000000     6.028000000
C    -2.614000000    -2.240000000     5.432000000
H    -1.553000000    -2.078000000     5.261000000
C    -4.679000000    -1.464000000     6.345000000
H    -5.307000000    -0.680000000     6.759000000
C    -5.289000000    -2.674000000     5.994000000
H    -6.281000000    -2.933000000     6.354000000
C    -4.557000000    -3.674000000     5.413000000
H    -4.916000000    -4.691000000     5.273000000
C    -3.194000000    -3.457000000     5.141000000
O    -2.453000000    -4.524000000     4.571000000
C    -2.265000000    -4.631000000     3.211000000
C    -1.720000000    -5.873000000     2.812000000
H    -1.287000000    -6.612000000     3.482000000
C    -1.494000000    -6.116000000     1.433000000
O    -0.891000000    -7.332000000     0.973000000
C     0.124000000    -7.215000000    -0.007000000
C     1.048000000    -6.142000000    -0.061000000
H     1.022000000    -5.415000000     0.746000000
C     0.334000000    -8.327000000    -0.905000000
H    -0.395000000    -9.119000000    -0.752000000
C     1.399000000    -8.392000000    -1.795000000
H     1.549000000    -9.219000000    -2.486000000
C     2.362000000    -7.391000000    -1.714000000
H     3.224000000    -7.374000000    -2.377000000
C     2.104000000    -6.221000000    -0.967000000
O     3.114000000    -5.266000000    -0.693000000
C     3.306000000    -4.172000000    -1.492000000
C     4.566000000    -3.555000000    -1.378000000
H     5.346000000    -3.919000000    -0.715000000
C     4.845000000    -2.427000000    -2.120000000
O     6.067000000    -1.819000000    -2.032000000
C     6.312000000    -0.511000000    -2.405000000
C     6.325000000     0.465000000    -1.453000000
H     6.160000000     0.224000000    -0.406000000
C     6.796000000    -0.173000000    -3.705000000
H     6.947000000    -0.943000000    -4.457000000
C     7.070000000     1.129000000    -4.021000000
H     7.319000000     1.287000000    -5.068000000
C     6.943000000     2.160000000    -3.054000000
H     7.143000000     3.196000000    -3.316000000
C     6.664000000     1.798000000    -1.723000000
O     6.569000000     2.704000000    -0.707000000
C     5.414000000     3.197000000    -0.218000000
C     5.337000000     3.682000000     1.044000000
H     6.229000000     3.645000000     1.665000000
C     4.241000000     4.266000000     1.541000000
O     4.324000000     4.727000000     2.875000000
C     3.205000000     4.965000000     3.563000000
C     2.651000000     6.244000000     3.657000000
H     3.147000000     7.129000000     3.267000000
C     1.467000000     6.437000000     4.355000000
H     1.223000000     7.494000000     4.415000000
C     0.806000000     5.436000000     4.939000000
H    -0.143000000     5.654000000     5.424000000
C     1.360000000     4.149000000     4.943000000
C     2.561000000     3.898000000     4.205000000
H     2.992000000     2.903000000     4.280000000
C     3.128000000    -0.979000000     0.075000000
H     4.142000000    -0.775000000    -0.259000000
C     2.029000000    -0.172000000    -0.455000000
H     2.163000000     0.619000000    -1.189000000
C     0.729000000    -0.388000000    -0.046000000
H    -0.091000000     0.162000000    -0.472000000
C     0.437000000    -1.403000000     0.908000000
H    -0.597000000    -1.544000000     1.214000000
C     1.504000000    -2.138000000     1.412000000
H     1.341000000    -2.883000000     2.187000000
C     2.828000000    -1.926000000     1.070000000
C     3.867000000    -2.720000000     1.845000000
O     3.657000000    -3.464000000     2.767000000
O     5.029000000    -2.334000000     1.686000000
O     6.693000000    -4.408000000     2.289000000
H     6.304000000    -3.559000000     2.080000000
H     5.984000000    -5.036000000     2.151000000
O     7.460000000    -0.248000000     4.342000000
H     7.451000000     0.635000000     4.713000000
H     7.927000000    -0.775000000     4.990000000
O     4.950000000    -8.379000000     2.934000000
H     5.096000000    -8.739000000     2.059000000
H     5.020000000    -7.431000000     2.817000000
O    10.249000000    -3.113000000     2.393000000
H     9.425000000    -2.644000000     2.262000000
H    10.918000000    -2.429000000     2.381000000
O     8.476000000     0.445000000     1.822000000
H     8.180000000    -0.294000000     1.290000000
H     8.311000000     0.173000000     2.724000000
O     5.260000000    -2.580000000     4.967000000
H     4.966000000    -3.115000000     4.230000000
H     5.893000000    -1.972000000     4.584000000
O     2.187000000     1.395000000     1.982000000
H     2.281000000     1.140000000     1.064000000
H     3.006000000     1.119000000     2.392000000
O     8.628000000    -2.297000000     5.887000000
H     8.081000000    -3.045000000     5.649000000
H     9.489000000    -2.676000000     6.065000000
O     7.679000000    -2.003000000     0.699000000
H     6.841000000    -2.436000000     0.862000000
H     7.751000000    -1.971000000    -0.255000000
O     1.545000000    -1.343000000     5.514000000
H     1.706000000    -0.832000000     4.721000000
H     1.718000000    -2.248000000     5.254000000
O     4.381000000    -5.855000000     1.928000000
H     4.024000000    -5.806000000     1.041000000
H     4.074000000    -5.054000000     2.354000000
O     8.773000000    -4.628000000    -0.549000000
H     9.624000000    -4.978000000    -0.286000000
H     8.293000000    -4.522000000     0.273000000
O     5.128000000     0.232000000     2.323000000
H     6.073000000     0.383000000     2.324000000
H     5.037000000    -0.716000000     2.414000000
O     2.361000000    -3.890000000     4.914000000
H     2.849000000    -3.611000000     4.139000000
H     3.031000000    -4.217000000     5.514000000
O     4.681000000    -4.972000000     6.562000000
H     5.015000000    -4.286000000     5.983000000
H     5.455000000    -5.292000000     7.026000000
O     2.396000000    -7.879000000     4.027000000
H     3.344000000    -7.898000000     3.897000000
H     2.067000000    -7.335000000     3.312000000
O     8.332000000    -5.160000000     4.487000000
H     9.114000000    -5.052000000     3.945000000
H     7.606000000    -4.919000000     3.910000000
O     0.684000000    -5.316000000     6.468000000
H     1.383000000    -5.680000000     7.012000000
H     1.134000000    -4.723000000     5.866000000
O     8.125000000    -6.691000000     1.245000000
H     8.834000000    -6.911000000     1.849000000
H     7.596000000    -6.050000000     1.719000000
