215
-1458.49085
C    -1.992000000    -5.006000000     1.366000000
H    -2.048000000    -5.447000000     0.374000000
C    -2.606000000    -3.784000000     1.686000000
C    -2.592000000    -3.228000000     2.925000000
H    -3.166000000    -2.339000000     3.174000000
C    -3.208000000    -2.882000000     0.607000000
O    -3.268000000    -3.590000000    -0.647000000
H    -2.526000000    -2.053000000     0.365000000
O    -4.504000000    -2.380000000     0.910000000
C    -4.571000000    -0.993000000     0.569000000
C    -4.333000000    -0.079000000     1.534000000
H    -4.117000000    -0.497000000     2.514000000
C    -4.339000000     1.250000000     1.285000000
O    -3.895000000     2.086000000     2.351000000
C    -4.587000000     1.741000000     0.019000000
C    -4.540000000     3.241000000    -0.325000000
H    -5.196000000     3.368000000    -1.189000000
C    -3.127000000     3.657000000    -0.733000000
C    -2.677000000     3.534000000    -2.047000000
H    -3.400000000     3.270000000    -2.815000000
H    -4.928000000     3.853000000     0.491000000
C    -4.858000000     0.820000000    -1.003000000
H    -5.132000000     1.168000000    -1.996000000
C    -4.871000000    -0.556000000    -0.720000000
C    -5.012000000    -1.481000000    -1.924000000
H    -5.581000000    -0.972000000    -2.704000000
H    -5.595000000    -2.365000000    -1.660000000
C    -3.661000000    -1.993000000    -2.475000000
C    -3.206000000    -1.458000000    -3.714000000
H    -3.688000000    -0.576000000    -4.128000000
C    -2.909000000    -2.989000000    -1.829000000
C    -1.698000000    -3.364000000    -2.407000000
H    -0.974000000    -4.049000000    -1.973000000
C    -1.212000000    -2.840000000    -3.602000000
O     0.104000000    -3.145000000    -3.946000000
C     1.170000000    -2.260000000    -3.663000000
C     2.451000000    -2.892000000    -3.069000000
C     3.679000000    -2.386000000    -3.324000000
H     3.762000000    -1.574000000    -4.042000000
C     2.328000000    -3.898000000    -2.121000000
H     1.367000000    -4.086000000    -1.648000000
O     1.405000000    -1.413000000    -4.825000000
H     0.844000000    -1.685000000    -2.784000000
C    -1.968000000    -1.820000000    -4.209000000
C    -1.407000000    -1.109000000    -5.342000000
H    -2.187000000    -0.732000000    -6.007000000
H    -0.858000000    -1.796000000    -5.989000000
C    -0.547000000     0.060000000    -4.952000000
C    -1.148000000     1.313000000    -4.638000000
H    -2.196000000     1.509000000    -4.851000000
C     0.797000000    -0.152000000    -4.724000000
C     1.564000000     0.855000000    -4.209000000
H     2.575000000     0.771000000    -3.817000000
C     0.978000000     2.143000000    -3.959000000
O     1.815000000     3.065000000    -3.345000000
C     1.603000000     3.362000000    -1.948000000
C     2.940000000     3.194000000    -1.195000000
C     4.072000000     2.570000000    -1.709000000
H     4.091000000     2.035000000    -2.655000000
C     2.952000000     3.698000000     0.146000000
H     2.029000000     4.061000000     0.589000000
O     0.862000000     4.630000000    -1.735000000
H     0.957000000     2.569000000    -1.544000000
C    -0.346000000     2.380000000    -4.179000000
C    -0.979000000     3.749000000    -3.837000000
H    -1.871000000     3.938000000    -4.438000000
H    -0.398000000     4.651000000    -4.040000000
C    -1.404000000     3.858000000    -2.391000000
C    -0.474000000     4.352000000    -1.431000000
C    -0.885000000     4.372000000    -0.100000000
H    -0.309000000     4.843000000     0.692000000
C    -2.191000000     4.040000000     0.218000000
O    -2.521000000     3.913000000     1.541000000
C    -2.509000000     2.580000000     2.290000000
H    -1.806000000     1.866000000     1.837000000
C    -2.005000000     2.826000000     3.725000000
C    -2.467000000     2.038000000     4.833000000
H    -3.137000000     1.242000000     4.518000000
C    -1.082000000     3.850000000     4.036000000
H    -0.695000000     4.526000000     3.277000000
C    -0.526000000     3.846000000     5.333000000
O     0.605000000     4.728000000     5.452000000
C    -0.926000000     3.048000000     6.375000000
H    -0.404000000     3.134000000     7.324000000
C    -1.927000000     2.146000000     6.115000000
O    -2.088000000     1.172000000     7.090000000
C    -2.567000000     0.001000000     6.665000000
C    -1.825000000    -0.950000000     5.967000000
H    -0.755000000    -0.760000000     5.956000000
C    -3.898000000    -0.391000000     6.979000000
H    -4.469000000     0.351000000     7.532000000
C    -4.442000000    -1.553000000     6.548000000
H    -5.473000000    -1.684000000     6.866000000
C    -3.656000000    -2.472000000     5.860000000
H    -4.003000000    -3.473000000     5.616000000
C    -2.345000000    -2.172000000     5.645000000
O    -1.538000000    -3.156000000     5.127000000
C    -1.755000000    -3.751000000     3.918000000
C    -1.043000000    -4.904000000     3.607000000
H    -0.319000000    -5.333000000     4.296000000
C    -1.166000000    -5.574000000     2.402000000
O    -0.406000000    -6.621000000     2.127000000
C     0.301000000    -6.767000000     0.918000000
C     1.348000000    -5.895000000     0.588000000
H     1.516000000    -4.951000000     1.100000000
C     0.149000000    -7.917000000     0.119000000
H    -0.628000000    -8.641000000     0.353000000
C     1.030000000    -8.205000000    -0.928000000
H     0.868000000    -9.121000000    -1.490000000
C     2.065000000    -7.309000000    -1.207000000
H     2.879000000    -7.599000000    -1.867000000
C     2.231000000    -6.262000000    -0.402000000
O     3.363000000    -5.447000000    -0.599000000
C     3.509000000    -4.461000000    -1.546000000
C     4.766000000    -4.026000000    -1.922000000
H     5.752000000    -4.308000000    -1.562000000
C     4.848000000    -2.958000000    -2.843000000
O     6.017000000    -2.456000000    -3.332000000
C     6.269000000    -1.075000000    -3.390000000
C     6.061000000    -0.213000000    -2.293000000
H     5.664000000    -0.599000000    -1.358000000
C     6.726000000    -0.578000000    -4.551000000
H     6.941000000    -1.266000000    -5.364000000
C     7.028000000     0.724000000    -4.749000000
H     7.227000000     1.114000000    -5.743000000
C     7.002000000     1.558000000    -3.646000000
H     7.365000000     2.582000000    -3.689000000
C     6.426000000     1.105000000    -2.436000000
O     6.426000000     1.927000000    -1.351000000
C     5.244000000     2.508000000    -0.905000000
C     5.336000000     3.172000000     0.312000000
H     6.272000000     3.117000000     0.862000000
C     4.142000000     3.702000000     0.915000000
O     4.080000000     4.057000000     2.231000000
C     3.060000000     4.884000000     2.794000000
C     2.878000000     6.184000000     2.310000000
H     3.447000000     6.586000000     1.476000000
C     2.048000000     7.004000000     2.938000000
H     1.943000000     8.050000000     2.661000000
C     1.301000000     6.630000000     4.047000000
H     0.722000000     7.285000000     4.693000000
C     1.413000000     5.279000000     4.476000000
C     2.386000000     4.433000000     3.916000000
H     2.613000000     3.473000000     4.373000000
C     2.599000000    -1.088000000     0.275000000
H     3.661000000    -0.972000000     0.076000000
C     1.646000000    -0.464000000    -0.482000000
H     2.022000000     0.080000000    -1.344000000
C     0.319000000    -0.601000000    -0.191000000
H    -0.379000000    -0.014000000    -0.692000000
C     0.003000000    -1.317000000     0.916000000
H    -1.027000000    -1.295000000     1.264000000
C     0.892000000    -2.074000000     1.669000000
H     0.594000000    -2.628000000     2.555000000
C     2.247000000    -1.939000000     1.355000000
C     3.279000000    -2.552000000     2.194000000
O     3.018000000    -2.705000000     3.414000000
O     4.402000000    -2.766000000     1.777000000
O     4.768000000     0.063000000     4.943000000
H     4.979000000    -0.601000000     5.599000000
H     3.875000000     0.334000000     5.154000000
O     8.046000000    -5.014000000    -0.156000000
H     8.609000000    -4.265000000     0.037000000
H     7.276000000    -4.885000000     0.398000000
O     1.490000000     1.489000000     2.288000000
H     1.424000000     0.802000000     1.625000000
H     2.431000000     1.624000000     2.401000000
O     5.170000000    -3.228000000     4.945000000
H     4.634000000    -3.360000000     4.164000000
H     4.743000000    -3.755000000     5.621000000
O     5.911000000    -4.758000000     1.785000000
H     5.301000000    -5.424000000     2.101000000
H     5.386000000    -3.960000000     1.725000000
O     7.046000000    -2.072000000     0.150000000
H     7.190000000    -1.427000000     0.843000000
H     6.200000000    -2.466000000     0.363000000
O     6.378000000    -1.036000000     2.946000000
H     5.790000000    -1.779000000     2.812000000
H     5.825000000    -0.360000000     3.337000000
O     1.670000000    -6.611000000     4.836000000
H     1.812000000    -6.760000000     5.771000000
H     1.425000000    -7.469000000     4.491000000
O     5.432000000    -6.679000000     5.357000000
H     5.117000000    -6.287000000     6.171000000
H     6.005000000    -6.012000000     4.977000000
O     4.048000000    -7.350000000     2.173000000
H     4.906000000    -7.722000000     2.374000000
H     3.818000000    -6.844000000     2.953000000
O     8.790000000     0.333000000     1.694000000
H     8.109000000     0.222000000     2.358000000
H     9.546000000     0.661000000     2.180000000
O     5.205000000    -7.895000000    -0.564000000
H     4.678000000    -7.407000000     0.069000000
H     5.062000000    -8.814000000    -0.337000000
O     6.578000000     2.366000000     4.282000000
H     6.163000000     3.175000000     4.580000000
H     6.048000000     1.668000000     4.667000000
O     2.195000000    -0.438000000     4.902000000
H     2.771000000    -1.123000000     4.561000000
H     1.521000000    -0.336000000     4.230000000
O     2.070000000    -1.509000000     7.415000000
H     1.996000000    -2.385000000     7.035000000
H     1.875000000    -0.917000000     6.689000000
O     1.844000000    -3.627000000     5.588000000
H     1.952000000    -4.559000000     5.402000000
H     2.196000000    -3.186000000     4.815000000
O     8.854000000    -2.605000000     3.014000000
H     8.054000000    -2.092000000     2.898000000
H     9.361000000    -2.441000000     2.219000000
O     6.703000000    -1.986000000     6.849000000
H     7.517000000    -1.736000000     6.411000000
H     6.293000000    -2.613000000     6.254000000
O     7.448000000    -4.933000000     4.640000000
H     6.765000000    -4.269000000     4.550000000
H     7.986000000    -4.831000000     3.855000000
