215
-1444.58787
C    -2.234000000    -4.543000000     1.046000000
H    -2.293000000    -4.899000000     0.020000000
C    -2.907000000    -3.370000000     1.367000000
C    -2.752000000    -2.826000000     2.658000000
H    -3.253000000    -1.982000000     3.125000000
C    -3.611000000    -2.505000000     0.352000000
O    -3.829000000    -3.110000000    -0.954000000
H    -2.874000000    -1.698000000     0.230000000
O    -4.758000000    -1.703000000     0.720000000
C    -4.639000000    -0.335000000     0.362000000
C    -4.271000000     0.502000000     1.330000000
H    -4.162000000     0.111000000     2.339000000
C    -4.025000000     1.877000000     1.102000000
O    -3.714000000     2.707000000     2.163000000
C    -4.239000000     2.403000000    -0.161000000
C    -4.124000000     3.888000000    -0.482000000
H    -4.757000000     4.062000000    -1.354000000
C    -2.596000000     4.121000000    -0.664000000
C    -2.134000000     4.125000000    -2.009000000
H    -2.746000000     3.864000000    -2.869000000
H    -4.601000000     4.410000000     0.351000000
C    -4.686000000     1.571000000    -1.184000000
H    -4.880000000     2.045000000    -2.142000000
C    -4.814000000     0.180000000    -0.968000000
C    -5.237000000    -0.708000000    -2.151000000
H    -5.770000000    -0.166000000    -2.935000000
H    -5.911000000    -1.479000000    -1.771000000
C    -3.979000000    -1.412000000    -2.734000000
C    -3.384000000    -0.826000000    -3.877000000
H    -3.839000000     0.056000000    -4.321000000
C    -3.391000000    -2.520000000    -2.133000000
C    -2.178000000    -3.050000000    -2.628000000
H    -1.755000000    -3.899000000    -2.098000000
C    -1.524000000    -2.362000000    -3.680000000
O    -0.283000000    -2.838000000    -4.068000000
C     0.972000000    -2.080000000    -3.732000000
C     2.076000000    -3.010000000    -3.310000000
C     3.394000000    -2.521000000    -3.460000000
H     3.632000000    -1.665000000    -4.086000000
C     1.869000000    -4.195000000    -2.593000000
H     0.872000000    -4.529000000    -2.319000000
O     1.376000000    -1.151000000    -4.775000000
H     0.834000000    -1.412000000    -2.869000000
C    -2.140000000    -1.261000000    -4.307000000
C    -1.404000000    -0.509000000    -5.421000000
H    -2.139000000    -0.009000000    -6.055000000
H    -0.969000000    -1.163000000    -6.179000000
C    -0.416000000     0.502000000    -4.919000000
C    -0.750000000     1.806000000    -4.648000000
H    -1.797000000     2.061000000    -4.797000000
C     0.972000000     0.187000000    -4.728000000
C     1.901000000     1.104000000    -4.262000000
H     2.951000000     0.821000000    -4.240000000
C     1.413000000     2.309000000    -3.830000000
O     2.229000000     3.028000000    -3.085000000
C     1.952000000     3.091000000    -1.715000000
C     3.105000000     2.760000000    -0.793000000
C     4.303000000     2.290000000    -1.315000000
H     4.475000000     2.250000000    -2.388000000
C     3.043000000     2.803000000     0.636000000
H     2.209000000     3.296000000     1.129000000
O     1.457000000     4.398000000    -1.379000000
H     1.187000000     2.335000000    -1.482000000
C     0.090000000     2.742000000    -4.077000000
C    -0.344000000     4.184000000    -3.692000000
H    -1.209000000     4.305000000    -4.349000000
H     0.480000000     4.836000000    -3.986000000
C    -0.787000000     4.334000000    -2.251000000
C     0.085000000     4.440000000    -1.166000000
C    -0.393000000     4.411000000     0.179000000
H     0.305000000     4.316000000     1.006000000
C    -1.748000000     4.333000000     0.416000000
O    -2.184000000     4.358000000     1.757000000
C    -2.404000000     3.112000000     2.385000000
H    -1.905000000     2.281000000     1.864000000
C    -2.012000000     3.023000000     3.879000000
C    -2.620000000     2.200000000     4.851000000
H    -3.555000000     1.735000000     4.549000000
C    -0.927000000     3.819000000     4.240000000
H    -0.353000000     4.314000000     3.461000000
C    -0.286000000     3.597000000     5.469000000
O     0.839000000     4.200000000     5.829000000
C    -0.812000000     2.704000000     6.386000000
H    -0.301000000     2.678000000     7.345000000
C    -1.970000000     2.062000000     6.089000000
O    -2.490000000     1.153000000     7.010000000
C    -2.858000000    -0.102000000     6.607000000
C    -2.048000000    -0.996000000     5.965000000
H    -1.052000000    -0.673000000     5.672000000
C    -4.159000000    -0.499000000     6.842000000
H    -4.750000000     0.224000000     7.399000000
C    -4.675000000    -1.718000000     6.415000000
H    -5.712000000    -1.936000000     6.656000000
C    -3.806000000    -2.693000000     5.952000000
H    -4.125000000    -3.717000000     5.774000000
C    -2.495000000    -2.292000000     5.588000000
O    -1.736000000    -3.152000000     4.923000000
C    -1.945000000    -3.549000000     3.612000000
C    -1.272000000    -4.724000000     3.239000000
H    -0.724000000    -5.227000000     4.031000000
C    -1.493000000    -5.255000000     1.997000000
O    -1.037000000    -6.514000000     1.556000000
C    -0.427000000    -6.745000000     0.400000000
C     0.820000000    -6.185000000     0.131000000
H     1.172000000    -5.310000000     0.670000000
C    -0.874000000    -7.780000000    -0.442000000
H    -1.733000000    -8.394000000    -0.184000000
C    -0.196000000    -8.129000000    -1.620000000
H    -0.543000000    -8.925000000    -2.274000000
C     0.973000000    -7.510000000    -1.923000000
H     1.547000000    -7.954000000    -2.732000000
C     1.549000000    -6.609000000    -1.056000000
O     2.771000000    -6.059000000    -1.190000000
C     2.966000000    -4.931000000    -2.046000000
C     4.231000000    -4.425000000    -2.206000000
H     5.072000000    -4.901000000    -1.708000000
C     4.441000000    -3.181000000    -2.857000000
O     5.722000000    -2.740000000    -3.040000000
C     6.203000000    -1.468000000    -3.100000000
C     6.005000000    -0.576000000    -1.982000000
H     5.469000000    -0.854000000    -1.078000000
C     6.943000000    -1.061000000    -4.154000000
H     7.171000000    -1.763000000    -4.952000000
C     7.363000000     0.303000000    -4.287000000
H     7.762000000     0.663000000    -5.232000000
C     7.189000000     1.174000000    -3.208000000
H     7.599000000     2.181000000    -3.238000000
C     6.523000000     0.713000000    -2.070000000
O     6.588000000     1.585000000    -1.006000000
C     5.453000000     2.025000000    -0.480000000
C     5.375000000     2.173000000     0.878000000
H     6.204000000     1.942000000     1.542000000
C     4.176000000     2.579000000     1.420000000
O     4.137000000     2.668000000     2.795000000
C     3.566000000     3.706000000     3.422000000
C     3.985000000     4.985000000     3.098000000
H     4.754000000     5.193000000     2.358000000
C     3.415000000     6.077000000     3.784000000
H     3.778000000     7.100000000     3.740000000
C     2.383000000     5.833000000     4.660000000
H     1.829000000     6.664000000     5.088000000
C     1.901000000     4.511000000     4.916000000
C     2.519000000     3.441000000     4.260000000
H     2.131000000     2.440000000     4.430000000
C     2.476000000    -1.616000000     0.030000000
H     3.469000000    -1.702000000    -0.404000000
C     1.445000000    -0.783000000    -0.479000000
H     1.569000000    -0.206000000    -1.391000000
C     0.282000000    -0.620000000     0.249000000
H    -0.505000000     0.040000000    -0.099000000
C     0.012000000    -1.353000000     1.366000000
H    -0.964000000    -1.303000000     1.842000000
C     1.043000000    -2.165000000     1.832000000
H     0.859000000    -2.781000000     2.709000000
C     2.309000000    -2.321000000     1.253000000
C     3.428000000    -3.271000000     1.678000000
O     3.275000000    -4.028000000     2.664000000
O     4.511000000    -3.202000000     1.127000000
O     7.797000000    -5.791000000    -0.818000000
H     8.493000000    -5.298000000    -0.384000000
H     7.046000000    -5.714000000    -0.230000000
O     0.502000000     0.813000000     3.374000000
H     0.884000000     0.146000000     3.944000000
H     0.684000000     0.503000000     2.486000000
O     5.944000000    -3.403000000     3.558000000
H     5.373000000    -3.495000000     2.795000000
H     6.194000000    -4.300000000     3.780000000
O     5.735000000    -5.841000000     0.851000000
H     5.642000000    -6.474000000     1.563000000
H     5.040000000    -5.201000000     1.007000000
O     7.006000000    -2.552000000     0.254000000
H     6.108000000    -2.736000000     0.530000000
H     7.531000000    -3.227000000     0.683000000
O     6.626000000    -0.797000000     2.975000000
H     6.753000000    -1.694000000     2.665000000
H     7.135000000    -0.748000000     3.784000000
O     1.116000000    -6.219000000     5.584000000
H     1.408000000    -6.525000000     6.443000000
H     1.265000000    -6.964000000     5.001000000
O     3.114000000     0.768000000     6.332000000
H     2.813000000     0.519000000     7.206000000
H     2.807000000     0.061000000     5.763000000
O     4.190000000    -7.048000000     2.997000000
H     3.356000000    -7.496000000     3.137000000
H     3.962000000    -6.118000000     2.977000000
O     8.590000000    -0.095000000     1.065000000
H     7.777000000    -0.421000000     1.451000000
H     8.972000000    -0.859000000     0.631000000
O     3.775000000    -9.079000000     0.738000000
H     3.981000000    -8.356000000     1.331000000
H     4.532000000    -9.662000000     0.798000000
O     3.859000000    -0.174000000     3.345000000
H     4.809000000    -0.268000000     3.273000000
H     3.703000000     0.765000000     3.239000000
O     1.783000000    -0.968000000     4.815000000
H     1.677000000    -1.919000000     4.851000000
H     2.463000000    -0.828000000     4.155000000
O     2.349000000    -3.480000000     4.936000000
H     1.945000000    -4.334000000     5.093000000
H     2.747000000    -3.560000000     4.070000000
O     6.322000000    -3.092000000     6.569000000
H     6.518000000    -2.456000000     7.257000000
H     6.307000000    -2.576000000     5.763000000
O     6.150000000    -9.152000000     3.079000000
H     5.654000000    -8.344000000     3.207000000
H     6.521000000    -9.344000000     3.940000000
O     8.581000000    -3.522000000     2.836000000
H     7.772000000    -3.341000000     3.314000000
H     9.121000000    -4.014000000     3.455000000
O     6.737000000    -5.878000000     4.210000000
H     7.388000000    -6.468000000     4.592000000
H     5.907000000    -6.153000000     4.599000000
O     1.921000000    -8.323000000     3.842000000
H     2.456000000    -9.107000000     3.971000000
H     1.023000000    -8.651000000     3.796000000
