215
-1437.53712
C    -1.021000000    -4.694000000     0.766000000
H    -0.765000000    -4.493000000    -0.272000000
C    -2.085000000    -3.954000000     1.325000000
C    -2.226000000    -4.041000000     2.690000000
H    -2.933000000    -3.391000000     3.199000000
C    -2.944000000    -3.002000000     0.598000000
O    -3.463000000    -3.479000000    -0.649000000
H    -2.346000000    -2.138000000     0.272000000
O    -3.895000000    -2.480000000     1.422000000
C    -4.140000000    -1.116000000     1.392000000
C    -3.674000000    -0.381000000     2.459000000
H    -3.117000000    -0.933000000     3.211000000
C    -3.785000000     1.023000000     2.492000000
O    -3.195000000     1.674000000     3.583000000
C    -4.405000000     1.696000000     1.411000000
C    -4.406000000     3.168000000     1.292000000
H    -5.198000000     3.523000000     0.629000000
C    -3.166000000     3.674000000     0.750000000
C    -3.126000000     3.900000000    -0.581000000
H    -4.017000000     3.820000000    -1.198000000
H    -4.689000000     3.598000000     2.256000000
C    -4.989000000     0.924000000     0.387000000
H    -5.526000000     1.379000000    -0.442000000
C    -4.841000000    -0.453000000     0.322000000
C    -5.369000000    -1.285000000    -0.818000000
H    -6.122000000    -0.654000000    -1.293000000
H    -5.913000000    -2.187000000    -0.531000000
C    -4.276000000    -1.563000000    -1.846000000
C    -4.149000000    -0.745000000    -2.912000000
H    -4.873000000     0.059000000    -3.016000000
C    -3.395000000    -2.658000000    -1.728000000
C    -2.429000000    -2.933000000    -2.665000000
H    -1.811000000    -3.827000000    -2.652000000
C    -2.214000000    -2.006000000    -3.633000000
O    -1.060000000    -2.229000000    -4.405000000
C     0.075000000    -1.465000000    -4.148000000
C     1.442000000    -2.210000000    -3.987000000
C     2.533000000    -1.444000000    -3.839000000
H     2.431000000    -0.362000000    -3.810000000
C     1.456000000    -3.606000000    -3.951000000
H     0.508000000    -4.135000000    -3.991000000
O     0.063000000    -0.331000000    -5.038000000
H    -0.013000000    -1.009000000    -3.151000000
C    -3.119000000    -0.883000000    -3.823000000
C    -2.852000000     0.135000000    -4.936000000
H    -3.823000000     0.611000000    -5.086000000
H    -2.473000000    -0.309000000    -5.859000000
C    -1.848000000     1.151000000    -4.559000000
C    -2.312000000     2.284000000    -3.919000000
H    -3.356000000     2.523000000    -3.736000000
C    -0.439000000     0.846000000    -4.541000000
C     0.460000000     1.783000000    -3.989000000
H     1.524000000     1.563000000    -3.941000000
C    -0.045000000     2.948000000    -3.484000000
O     0.879000000     3.843000000    -2.994000000
C     1.209000000     3.776000000    -1.582000000
C     2.682000000     3.900000000    -1.322000000
C     3.697000000     3.513000000    -2.220000000
H     3.504000000     3.242000000    -3.255000000
C     3.073000000     4.438000000    -0.099000000
H     2.374000000     4.804000000     0.648000000
O     0.452000000     4.774000000    -0.897000000
H     0.955000000     2.777000000    -1.197000000
C    -1.420000000     3.156000000    -3.415000000
C    -2.005000000     4.441000000    -2.747000000
H    -2.994000000     4.740000000    -3.102000000
H    -1.497000000     5.377000000    -2.988000000
C    -1.963000000     4.354000000    -1.217000000
C    -0.821000000     4.513000000    -0.433000000
C    -0.879000000     4.305000000     0.954000000
H     0.044000000     4.414000000     1.517000000
C    -2.028000000     3.822000000     1.515000000
O    -1.938000000     3.543000000     2.878000000
C    -1.823000000     2.135000000     3.276000000
H    -1.425000000     1.636000000     2.380000000
C    -0.753000000     1.848000000     4.388000000
C    -1.012000000     0.796000000     5.322000000
H    -1.986000000     0.368000000     5.544000000
C     0.510000000     2.389000000     4.246000000
H     0.648000000     3.241000000     3.585000000
C     1.547000000     1.898000000     4.920000000
O     2.779000000     2.408000000     4.642000000
C     1.363000000     0.817000000     5.765000000
H     2.238000000     0.353000000     6.212000000
C     0.098000000     0.293000000     5.998000000
O    -0.048000000    -0.847000000     6.796000000
C    -1.003000000    -1.839000000     6.706000000
C    -0.923000000    -2.825000000     5.749000000
H    -0.076000000    -2.798000000     5.067000000
C    -1.958000000    -1.972000000     7.738000000
H    -2.123000000    -1.209000000     8.494000000
C    -2.784000000    -3.090000000     7.772000000
H    -3.560000000    -3.154000000     8.532000000
C    -2.680000000    -4.097000000     6.822000000
H    -3.328000000    -4.964000000     6.919000000
C    -1.760000000    -3.924000000     5.758000000
O    -1.613000000    -4.954000000     4.788000000
C    -1.326000000    -4.742000000     3.501000000
C    -0.256000000    -5.412000000     2.998000000
H     0.426000000    -6.000000000     3.607000000
C    -0.158000000    -5.467000000     1.580000000
O     0.939000000    -6.163000000     1.065000000
C     0.971000000    -6.613000000    -0.263000000
C     1.840000000    -5.890000000    -1.165000000
H     2.598000000    -5.191000000    -0.824000000
C     0.042000000    -7.462000000    -0.786000000
H    -0.639000000    -7.879000000    -0.049000000
C    -0.063000000    -7.778000000    -2.150000000
H    -0.699000000    -8.603000000    -2.461000000
C     0.833000000    -7.131000000    -3.026000000
H     0.839000000    -7.249000000    -4.107000000
C     1.744000000    -6.170000000    -2.539000000
O     2.689000000    -5.650000000    -3.406000000
C     2.654000000    -4.258000000    -3.762000000
C     3.794000000    -3.536000000    -3.704000000
H     4.712000000    -4.091000000    -3.529000000
C     3.764000000    -2.150000000    -3.683000000
O     4.955000000    -1.403000000    -3.439000000
C     5.287000000    -0.122000000    -3.955000000
C     5.370000000     0.929000000    -3.079000000
H     5.038000000     0.743000000    -2.060000000
C     5.612000000     0.001000000    -5.334000000
H     5.644000000    -0.883000000    -5.965000000
C     6.059000000     1.209000000    -5.764000000
H     6.408000000     1.199000000    -6.793000000
C     6.140000000     2.283000000    -4.913000000
H     6.360000000     3.275000000    -5.298000000
C     5.850000000     2.161000000    -3.540000000
O     6.050000000     3.094000000    -2.623000000
C     5.068000000     3.566000000    -1.880000000
C     5.423000000     4.150000000    -0.653000000
H     6.433000000     4.244000000    -0.262000000
C     4.386000000     4.548000000     0.178000000
O     4.835000000     5.041000000     1.332000000
C     4.029000000     4.958000000     2.455000000
C     3.604000000     6.161000000     3.012000000
H     3.847000000     7.131000000     2.585000000
C     2.791000000     6.149000000     4.229000000
H     2.414000000     7.071000000     4.665000000
C     2.546000000     4.849000000     4.790000000
H     1.887000000     4.702000000     5.642000000
C     3.057000000     3.663000000     4.233000000
C     3.851000000     3.734000000     3.091000000
H     4.112000000     2.818000000     2.566000000
C     2.187000000     0.393000000     1.059000000
H     2.808000000     1.031000000     1.682000000
C     0.945000000     0.862000000     0.752000000
H     0.638000000     1.791000000     1.227000000
C     0.029000000     0.054000000     0.074000000
H    -0.967000000     0.276000000     0.009000000
C     0.533000000    -1.131000000    -0.487000000
H    -0.079000000    -1.833000000    -1.048000000
C     1.844000000    -1.555000000    -0.277000000
H     2.072000000    -2.424000000    -0.889000000
C     2.750000000    -0.779000000     0.463000000
C     4.156000000    -1.300000000     0.692000000
O     4.432000000    -2.336000000     0.118000000
O     4.786000000    -0.876000000     1.567000000
O     6.293000000    -4.680000000     5.686000000
H     5.870000000    -4.420000000     4.867000000
H     6.815000000    -5.447000000     5.453000000
O     8.846000000     1.876000000     1.528000000
H     7.928000000     2.068000000     1.720000000
H     8.833000000     1.504000000     0.646000000
O     1.093000000    -1.430000000     3.245000000
H     1.475000000    -0.578000000     3.035000000
H     1.693000000    -1.810000000     3.887000000
O     5.470000000    -2.511000000     3.415000000
H     5.042000000    -2.335000000     2.577000000
H     5.811000000    -3.401000000     3.327000000
O     7.876000000    -4.447000000    -3.405000000
H     7.198000000    -3.885000000    -3.031000000
H     8.382000000    -4.747000000    -2.650000000
O     5.032000000    -6.023000000    -1.377000000
H     4.111000000    -6.205000000    -1.564000000
H     5.482000000    -6.847000000    -1.565000000
O     6.362000000    -3.090000000    -1.600000000
H     5.882000000    -2.885000000    -0.797000000
H     5.790000000    -2.787000000    -2.305000000
O     7.348000000     0.059000000    -0.110000000
H     7.137000000     0.939000000    -0.422000000
H     6.761000000    -0.079000000     0.634000000
O     6.321000000     1.153000000     2.150000000
H     6.300000000     1.135000000     3.107000000
H     5.583000000     0.604000000     1.885000000
O     5.743000000    -5.084000000     0.991000000
H     5.398000000    -5.464000000     0.183000000
H     5.663000000    -4.138000000     0.864000000
O     5.839000000    -1.746000000     6.119000000
H     6.552000000    -2.203000000     6.566000000
H     6.075000000    -1.782000000     5.193000000
O     8.954000000    -0.031000000     3.855000000
H     8.051000000     0.260000000     3.978000000
H     9.332000000     0.608000000     3.252000000
O     3.177000000    -3.912000000     2.014000000
H     2.615000000    -3.327000000     2.523000000
H     3.446000000    -3.388000000     1.259000000
O     3.273000000    -6.820000000     3.120000000
H     3.868000000    -7.137000000     2.440000000
H     2.892000000    -6.023000000     2.752000000
O     2.876000000    -2.213000000     5.311000000
H     3.826000000    -2.299000000     5.399000000
H     2.531000000    -2.486000000     6.161000000
O     6.518000000     1.441000000     4.862000000
H     6.777000000     1.989000000     5.603000000
H     5.675000000     1.069000000     5.122000000
O     7.480000000    -5.328000000     2.934000000
H     7.689000000    -6.262000000     2.952000000
H     6.870000000    -5.233000000     2.202000000
O     8.656000000    -1.623000000    -1.742000000
H     8.077000000    -2.384000000    -1.803000000
H     8.322000000    -1.128000000    -0.994000000
O     8.862000000    -2.575000000     4.873000000
H     8.952000000    -1.860000000     4.242000000
H     8.296000000    -3.210000000     4.434000000
