215
-1450.47230
C    -1.599000000    -4.795000000     1.360000000
H    -1.464000000    -4.895000000     0.286000000
C    -2.438000000    -3.753000000     1.841000000
C    -2.547000000    -3.529000000     3.200000000
H    -3.039000000    -2.611000000     3.511000000
C    -3.132000000    -2.750000000     0.848000000
O    -3.555000000    -3.487000000    -0.338000000
H    -2.379000000    -2.014000000     0.529000000
O    -4.245000000    -2.018000000     1.492000000
C    -4.324000000    -0.652000000     1.107000000
C    -3.980000000     0.287000000     2.024000000
H    -3.540000000     0.047000000     2.988000000
C    -4.161000000     1.623000000     1.715000000
O    -3.720000000     2.574000000     2.561000000
C    -4.523000000     1.999000000     0.425000000
C    -4.529000000     3.457000000    -0.037000000
H    -5.246000000     3.602000000    -0.847000000
C    -3.181000000     3.992000000    -0.503000000
C    -2.749000000     3.975000000    -1.844000000
H    -3.476000000     3.649000000    -2.583000000
H    -4.840000000     4.092000000     0.795000000
C    -4.844000000     1.042000000    -0.511000000
H    -5.045000000     1.342000000    -1.536000000
C    -4.778000000    -0.287000000    -0.141000000
C    -5.190000000    -1.234000000    -1.199000000
H    -5.845000000    -0.719000000    -1.904000000
H    -5.717000000    -2.071000000    -0.736000000
C    -4.038000000    -1.793000000    -2.052000000
C    -3.614000000    -1.213000000    -3.268000000
H    -4.187000000    -0.390000000    -3.688000000
C    -3.252000000    -2.907000000    -1.586000000
C    -2.242000000    -3.416000000    -2.339000000
H    -1.686000000    -4.307000000    -2.059000000
C    -1.685000000    -2.672000000    -3.411000000
O    -0.428000000    -3.070000000    -3.920000000
C     0.668000000    -2.221000000    -3.605000000
C     1.847000000    -3.067000000    -3.347000000
C     3.084000000    -2.553000000    -3.665000000
H     3.054000000    -1.539000000    -4.053000000
C     1.836000000    -4.371000000    -2.824000000
H     0.889000000    -4.866000000    -2.624000000
O     0.889000000    -1.245000000    -4.724000000
H     0.502000000    -1.609000000    -2.707000000
C    -2.469000000    -1.649000000    -3.954000000
C    -1.851000000    -0.908000000    -5.126000000
H    -2.600000000    -0.438000000    -5.767000000
H    -1.410000000    -1.628000000    -5.819000000
C    -0.922000000     0.260000000    -4.647000000
C    -1.433000000     1.584000000    -4.522000000
H    -2.497000000     1.794000000    -4.592000000
C     0.443000000     0.052000000    -4.623000000
C     1.250000000     1.117000000    -4.365000000
H     2.323000000     1.019000000    -4.224000000
C     0.746000000     2.315000000    -3.894000000
O     1.691000000     3.200000000    -3.287000000
C     1.520000000     3.395000000    -1.879000000
C     2.861000000     3.227000000    -1.084000000
C     3.947000000     2.522000000    -1.653000000
H     3.930000000     2.122000000    -2.664000000
C     2.918000000     3.570000000     0.268000000
H     2.041000000     4.072000000     0.669000000
O     0.849000000     4.679000000    -1.647000000
H     0.809000000     2.626000000    -1.542000000
C    -0.628000000     2.681000000    -4.040000000
C    -1.184000000     4.035000000    -3.745000000
H    -2.081000000     4.217000000    -4.339000000
H    -0.491000000     4.824000000    -4.046000000
C    -1.492000000     4.296000000    -2.300000000
C    -0.512000000     4.663000000    -1.374000000
C    -0.905000000     4.769000000    -0.021000000
H    -0.136000000     4.886000000     0.738000000
C    -2.207000000     4.472000000     0.389000000
O    -2.318000000     4.406000000     1.708000000
C    -2.330000000     3.031000000     2.342000000
H    -1.792000000     2.375000000     1.642000000
C    -1.535000000     2.974000000     3.677000000
C    -1.373000000     1.755000000     4.300000000
H    -1.722000000     0.852000000     3.806000000
C    -0.749000000     4.034000000     4.002000000
H    -0.672000000     4.903000000     3.353000000
C     0.103000000     3.977000000     4.999000000
O     0.911000000     5.074000000     5.300000000
C     0.135000000     2.812000000     5.869000000
H     0.914000000     2.840000000     6.626000000
C    -0.595000000     1.664000000     5.413000000
O    -0.312000000     0.458000000     6.030000000
C    -1.315000000    -0.494000000     6.192000000
C    -1.095000000    -1.772000000     5.763000000
H    -0.223000000    -2.161000000     5.244000000
C    -2.494000000    -0.145000000     6.816000000
H    -2.690000000     0.849000000     7.210000000
C    -3.448000000    -1.131000000     7.035000000
H    -4.332000000    -0.952000000     7.642000000
C    -3.242000000    -2.414000000     6.663000000
H    -4.058000000    -3.129000000     6.599000000
C    -2.043000000    -2.765000000     6.032000000
O    -1.974000000    -4.020000000     5.483000000
C    -1.820000000    -4.281000000     4.118000000
C    -1.017000000    -5.330000000     3.664000000
H    -0.595000000    -6.022000000     4.389000000
C    -0.888000000    -5.604000000     2.297000000
O    -0.163000000    -6.719000000     2.011000000
C     0.284000000    -6.900000000     0.759000000
C     1.459000000    -6.336000000     0.179000000
H     2.050000000    -5.760000000     0.886000000
C    -0.596000000    -7.611000000    -0.152000000
H    -1.550000000    -7.928000000     0.263000000
C    -0.123000000    -7.990000000    -1.412000000
H    -0.760000000    -8.637000000    -2.010000000
C     1.090000000    -7.567000000    -1.847000000
H     1.472000000    -7.887000000    -2.812000000
C     1.839000000    -6.688000000    -1.145000000
O     2.974000000    -6.178000000    -1.756000000
C     3.027000000    -4.982000000    -2.439000000
C     4.230000000    -4.442000000    -2.876000000
H     5.219000000    -4.797000000    -2.596000000
C     4.253000000    -3.176000000    -3.412000000
O     5.513000000    -2.638000000    -3.661000000
C     5.841000000    -1.300000000    -3.668000000
C     5.705000000    -0.558000000    -2.451000000
H     5.430000000    -1.012000000    -1.503000000
C     6.185000000    -0.689000000    -4.882000000
H     6.174000000    -1.194000000    -5.845000000
C     6.644000000     0.629000000    -4.855000000
H     6.955000000     1.096000000    -5.786000000
C     6.548000000     1.334000000    -3.654000000
H     6.856000000     2.370000000    -3.770000000
C     6.062000000     0.764000000    -2.533000000
O     6.060000000     1.439000000    -1.340000000
C     5.033000000     2.223000000    -0.873000000
C     5.140000000     2.654000000     0.417000000
H     6.007000000     2.377000000     1.012000000
C     4.123000000     3.331000000     1.023000000
O     4.352000000     3.729000000     2.383000000
C     3.623000000     4.738000000     2.909000000
C     3.710000000     6.075000000     2.471000000
H     4.417000000     6.349000000     1.692000000
C     3.045000000     7.138000000     3.156000000
H     3.298000000     8.127000000     2.784000000
C     2.221000000     6.777000000     4.192000000
H     1.660000000     7.486000000     4.795000000
C     1.939000000     5.405000000     4.489000000
C     2.693000000     4.413000000     3.903000000
H     2.610000000     3.353000000     4.130000000
C     2.395000000    -1.545000000     0.161000000
H     3.406000000    -1.427000000    -0.220000000
C     1.475000000    -0.707000000    -0.445000000
H     1.730000000    -0.227000000    -1.387000000
C     0.263000000    -0.372000000     0.181000000
H    -0.469000000     0.303000000    -0.353000000
C    -0.112000000    -1.130000000     1.299000000
H    -1.025000000    -0.862000000     1.824000000
C     0.786000000    -2.029000000     1.854000000
H     0.449000000    -2.659000000     2.673000000
C     2.076000000    -2.231000000     1.304000000
C     3.049000000    -3.272000000     1.821000000
O     2.693000000    -4.072000000     2.709000000
O     4.218000000    -3.209000000     1.536000000
O     7.441000000    -7.351000000     0.748000000
H     7.860000000    -7.097000000    -0.074000000
H     6.606000000    -7.736000000     0.483000000
O     5.822000000    -1.582000000     5.173000000
H     5.440000000    -1.046000000     5.867000000
H     5.831000000    -2.469000000     5.533000000
O     5.069000000    -7.559000000    -0.891000000
H     4.513000000    -6.843000000    -0.584000000
H     4.866000000    -7.637000000    -1.823000000
O     2.733000000    -0.531000000     6.520000000
H     2.710000000    -1.344000000     6.015000000
H     1.919000000    -0.083000000     6.289000000
O     5.729000000    -5.133000000     2.484000000
H     5.265000000    -4.382000000     2.114000000
H     5.113000000    -5.860000000     2.400000000
O     8.280000000    -2.141000000    -1.514000000
H     8.139000000    -1.645000000    -0.708000000
H     7.626000000    -2.839000000    -1.484000000
O     4.334000000    -9.250000000     1.167000000
H     4.430000000    -9.052000000     0.235000000
H     3.757000000    -8.563000000     1.499000000
O     6.130000000    -3.782000000    -0.391000000
H     6.583000000    -4.546000000    -0.033000000
H     5.548000000    -3.497000000     0.313000000
O     7.899000000    -0.655000000     0.786000000
H     8.325000000     0.015000000     1.322000000
H     7.083000000    -0.848000000     1.248000000
O     5.906000000    -1.448000000     2.513000000
H     5.077000000    -1.817000000     2.209000000
H     5.860000000    -1.507000000     3.467000000
O     3.510000000    -6.679000000     2.662000000
H     3.083000000    -7.054000000     3.432000000
H     3.294000000    -5.747000000     2.698000000
O     5.012000000     1.179000000     5.969000000
H     5.441000000     1.121000000     6.823000000
H     4.162000000     0.758000000     6.099000000
O     6.684000000    -8.021000000     3.717000000
H     6.086000000    -8.400000000     3.073000000
H     6.951000000    -7.185000000     3.333000000
O     6.671000000     1.221000000     3.660000000
H     6.098000000     1.270000000     4.425000000
H     6.409000000     0.415000000     3.215000000
O     2.909000000    -2.816000000     4.983000000
H     3.733000000    -3.282000000     5.125000000
H     2.601000000    -3.128000000     4.132000000
O     8.408000000    -4.012000000     2.905000000
H     7.593000000    -4.400000000     2.590000000
H     8.486000000    -4.318000000     3.809000000
O     5.226000000    -4.167000000     6.803000000
H     4.726000000    -4.419000000     7.580000000
H     5.451000000    -4.997000000     6.383000000
O     1.469000000    -3.786000000     7.307000000
H     1.981000000    -3.327000000     6.641000000
H     2.089000000    -4.397000000     7.706000000
O     5.847000000    -6.604000000     6.058000000
H     5.756000000    -7.350000000     6.651000000
H     6.095000000    -6.993000000     5.219000000
