215
-1467.65979
C    -1.104000000    -4.592000000     1.284000000
H    -1.003000000    -4.740000000     0.212000000
C    -2.146000000    -3.787000000     1.782000000
C    -2.224000000    -3.540000000     3.197000000
H    -2.908000000    -2.766000000     3.535000000
C    -2.868000000    -2.790000000     0.844000000
O    -3.182000000    -3.460000000    -0.368000000
H    -2.289000000    -1.883000000     0.618000000
O    -4.126000000    -2.333000000     1.371000000
C    -4.344000000    -0.969000000     1.202000000
C    -4.031000000    -0.113000000     2.255000000
H    -3.616000000    -0.509000000     3.178000000
C    -4.063000000     1.239000000     2.074000000
O    -3.474000000     1.976000000     3.089000000
C    -4.585000000     1.799000000     0.902000000
C    -4.622000000     3.322000000     0.668000000
H    -5.421000000     3.634000000    -0.008000000
C    -3.334000000     3.817000000     0.108000000
C    -3.138000000     3.983000000    -1.289000000
H    -4.010000000     3.743000000    -1.892000000
H    -4.781000000     3.856000000     1.607000000
C    -4.985000000     0.994000000    -0.181000000
H    -5.337000000     1.502000000    -1.075000000
C    -4.850000000    -0.409000000     0.024000000
C    -5.124000000    -1.350000000    -1.158000000
H    -5.785000000    -0.880000000    -1.889000000
H    -5.646000000    -2.250000000    -0.824000000
C    -3.832000000    -1.701000000    -1.825000000
C    -3.500000000    -0.926000000    -2.917000000
H    -4.113000000    -0.069000000    -3.187000000
C    -2.922000000    -2.712000000    -1.453000000
C    -1.860000000    -3.041000000    -2.251000000
H    -1.251000000    -3.862000000    -1.883000000
C    -1.692000000    -2.415000000    -3.462000000
O    -0.608000000    -2.827000000    -4.165000000
C     0.559000000    -2.009000000    -3.852000000
C     1.809000000    -2.847000000    -3.638000000
C     3.038000000    -2.297000000    -3.903000000
H     3.162000000    -1.235000000    -4.097000000
C     1.682000000    -4.181000000    -3.257000000
H     0.750000000    -4.679000000    -3.004000000
O     0.691000000    -0.989000000    -4.858000000
H     0.428000000    -1.435000000    -2.922000000
C    -2.482000000    -1.302000000    -3.766000000
C    -2.226000000    -0.565000000    -5.039000000
H    -3.151000000    -0.252000000    -5.528000000
H    -1.768000000    -1.328000000    -5.673000000
C    -1.262000000     0.501000000    -4.754000000
C    -1.806000000     1.777000000    -4.361000000
H    -2.880000000     1.932000000    -4.304000000
C     0.081000000     0.253000000    -4.744000000
C     0.899000000     1.348000000    -4.318000000
H     1.984000000     1.284000000    -4.296000000
C     0.390000000     2.584000000    -3.951000000
O     1.292000000     3.406000000    -3.409000000
C     1.295000000     3.462000000    -1.962000000
C     2.711000000     3.627000000    -1.454000000
C     3.638000000     2.761000000    -1.930000000
H     3.356000000     2.010000000    -2.663000000
C     3.078000000     4.413000000    -0.387000000
H     2.357000000     5.154000000    -0.052000000
O     0.470000000     4.532000000    -1.429000000
H     0.918000000     2.506000000    -1.571000000
C    -0.995000000     2.845000000    -3.965000000
C    -1.688000000     4.113000000    -3.400000000
H    -2.610000000     4.322000000    -3.945000000
H    -0.961000000     4.904000000    -3.594000000
C    -1.886000000     4.141000000    -1.864000000
C    -0.802000000     4.326000000    -0.977000000
C    -0.962000000     4.356000000     0.414000000
H    -0.120000000     4.604000000     1.055000000
C    -2.223000000     3.994000000     0.961000000
O    -2.257000000     3.803000000     2.307000000
C    -2.155000000     2.491000000     2.846000000
H    -1.675000000     1.876000000     2.070000000
C    -1.174000000     2.392000000     4.013000000
C    -1.508000000     1.620000000     5.103000000
H    -2.411000000     1.018000000     5.052000000
C     0.058000000     3.059000000     3.943000000
H     0.401000000     3.653000000     3.099000000
C     0.847000000     3.080000000     5.150000000
O     2.043000000     3.735000000     5.177000000
C     0.564000000     2.216000000     6.197000000
H     1.287000000     2.007000000     6.982000000
C    -0.601000000     1.440000000     6.059000000
O    -0.826000000     0.553000000     7.004000000
C    -1.540000000    -0.574000000     6.822000000
C    -1.067000000    -1.703000000     6.196000000
H    -0.049000000    -1.721000000     5.815000000
C    -2.886000000    -0.547000000     7.237000000
H    -3.292000000     0.306000000     7.774000000
C    -3.728000000    -1.640000000     6.947000000
H    -4.743000000    -1.569000000     7.331000000
C    -3.209000000    -2.794000000     6.340000000
H    -3.859000000    -3.625000000     6.078000000
C    -1.843000000    -2.826000000     5.958000000
O    -1.218000000    -3.917000000     5.408000000
C    -1.286000000    -4.195000000     4.028000000
C    -0.317000000    -5.062000000     3.522000000
H     0.476000000    -5.548000000     4.085000000
C    -0.181000000    -5.233000000     2.136000000
O     0.825000000    -6.055000000     1.652000000
C     0.943000000    -6.554000000     0.339000000
C     1.946000000    -6.122000000    -0.579000000
H     2.700000000    -5.382000000    -0.327000000
C     0.056000000    -7.588000000    -0.033000000
H    -0.574000000    -7.989000000     0.756000000
C     0.195000000    -8.266000000    -1.281000000
H    -0.385000000    -9.160000000    -1.498000000
C     1.155000000    -7.820000000    -2.188000000
H     1.269000000    -8.273000000    -3.169000000
C     1.963000000    -6.709000000    -1.854000000
O     2.834000000    -6.288000000    -2.792000000
C     2.813000000    -4.968000000    -3.112000000
C     4.038000000    -4.453000000    -3.501000000
H     4.889000000    -5.092000000    -3.280000000
C     4.183000000    -3.101000000    -3.717000000
O     5.486000000    -2.590000000    -3.951000000
C     5.703000000    -1.233000000    -4.028000000
C     5.782000000    -0.448000000    -2.876000000
H     5.720000000    -0.884000000    -1.882000000
C     5.708000000    -0.611000000    -5.277000000
H     5.805000000    -1.219000000    -6.172000000
C     5.863000000     0.758000000    -5.345000000
H     5.785000000     1.202000000    -6.334000000
C     5.911000000     1.552000000    -4.177000000
H     5.943000000     2.636000000    -4.243000000
C     5.837000000     0.948000000    -2.949000000
O     5.865000000     1.678000000    -1.809000000
C     4.914000000     2.645000000    -1.410000000
C     5.268000000     3.431000000    -0.297000000
H     6.250000000     3.235000000     0.125000000
C     4.287000000     4.202000000     0.275000000
O     4.611000000     4.903000000     1.451000000
C     3.733000000     5.289000000     2.487000000
C     3.419000000     6.675000000     2.620000000
H     3.823000000     7.346000000     1.866000000
C     2.540000000     7.073000000     3.626000000
H     2.248000000     8.112000000     3.748000000
C     2.068000000     6.077000000     4.523000000
H     1.413000000     6.377000000     5.337000000
C     2.487000000     4.749000000     4.389000000
C     3.290000000     4.368000000     3.360000000
H     3.503000000     3.312000000     3.214000000
C     2.431000000    -1.469000000    -0.048000000
H     3.312000000    -1.824000000    -0.578000000
C     1.529000000    -0.632000000    -0.660000000
H     1.716000000    -0.227000000    -1.651000000
C     0.363000000    -0.396000000     0.079000000
H    -0.318000000     0.313000000    -0.339000000
C     0.090000000    -0.911000000     1.338000000
H    -0.806000000    -0.679000000     1.907000000
C     0.990000000    -1.852000000     1.930000000
H     0.777000000    -2.389000000     2.851000000
C     2.204000000    -2.189000000     1.181000000
C     3.175000000    -3.199000000     1.696000000
O     3.210000000    -3.510000000     2.865000000
O     4.111000000    -3.515000000     0.967000000
O     7.486000000    -5.965000000     4.298000000
H     8.392000000    -6.261000000     4.391000000
H     7.117000000    -6.533000000     3.621000000
O     5.029000000    -1.207000000     3.464000000
H     4.469000000    -1.982000000     3.519000000
H     4.431000000    -0.496000000     3.235000000
O     5.025000000    -7.948000000    -1.091000000
H     5.109000000    -7.010000000    -0.920000000
H     4.399000000    -8.005000000    -1.813000000
O     2.591000000     0.868000000     2.657000000
H     2.262000000     0.371000000     3.406000000
H     2.011000000     0.626000000     1.935000000
O     6.150000000    -3.948000000     2.535000000
H     5.273000000    -3.729000000     2.219000000
H     5.999000000    -4.533000000     3.277000000
O     2.704000000    -8.666000000     1.877000000
H     3.445000000    -8.061000000     1.866000000
H     2.745000000    -9.110000000     1.030000000
O     5.586000000    -5.414000000    -0.500000000
H     5.762000000    -4.814000000    -1.225000000
H     5.243000000    -4.855000000     0.196000000
O     6.340000000    -1.862000000     0.605000000
H     5.655000000    -2.520000000     0.730000000
H     6.503000000    -1.517000000     1.483000000
O     3.921000000    -6.085000000     3.063000000
H     3.440000000    -6.473000000     3.794000000
H     3.443000000    -5.281000000     2.861000000
O     7.108000000    -0.590000000     4.908000000
H     6.576000000    -0.602000000     5.704000000
H     6.511000000    -0.877000000     4.217000000
O     4.760000000     1.437000000     5.022000000
H     4.951000000     1.323000000     5.953000000
H     4.007000000     0.869000000     4.861000000
O     6.095000000    -7.428000000     2.148000000
H     6.196000000    -7.264000000     1.210000000
H     5.384000000    -6.846000000     2.417000000
O     2.593000000    -0.220000000     5.324000000
H     2.231000000    -0.120000000     6.204000000
H     3.037000000    -1.068000000     5.343000000
O     7.364000000     0.962000000     1.756000000
H     7.245000000     0.593000000     2.631000000
H     6.492000000     0.931000000     1.363000000
O     3.386000000    -2.784000000     5.400000000
H     3.278000000    -3.519000000     6.003000000
H     3.233000000    -3.161000000     4.533000000
O     8.855000000    -3.425000000     1.399000000
H     7.910000000    -3.559000000     1.328000000
H     9.108000000    -3.910000000     2.185000000
O     3.543000000    -5.189000000     6.898000000
H     2.988000000    -5.856000000     6.494000000
H     3.663000000    -5.490000000     7.799000000
O     6.247000000    -5.278000000     6.472000000
H     6.712000000    -5.483000000     5.660000000
H     5.340000000    -5.137000000     6.199000000
O     7.966000000    -6.677000000    -0.170000000
H     8.624000000    -6.094000000     0.209000000
H     7.247000000    -6.098000000    -0.419000000
