215
-1468.45949
C    -1.426000000    -5.070000000     0.223000000
H    -1.615000000    -4.892000000    -0.833000000
C    -2.136000000    -4.399000000     1.205000000
C    -1.856000000    -4.597000000     2.569000000
H    -2.421000000    -4.112000000     3.360000000
C    -3.024000000    -3.190000000     0.809000000
O    -3.584000000    -3.479000000    -0.510000000
H    -2.275000000    -2.397000000     0.668000000
O    -4.012000000    -2.894000000     1.742000000
C    -4.246000000    -1.575000000     2.011000000
C    -3.702000000    -0.912000000     3.148000000
H    -3.125000000    -1.498000000     3.859000000
C    -3.604000000     0.489000000     3.161000000
O    -2.817000000     1.129000000     4.129000000
C    -4.282000000     1.255000000     2.207000000
C    -4.208000000     2.764000000     2.294000000
H    -5.057000000     3.132000000     1.716000000
C    -2.966000000     3.452000000     1.648000000
C    -3.045000000     3.799000000     0.289000000
H    -4.032000000     3.666000000    -0.146000000
H    -4.277000000     3.182000000     3.301000000
C    -4.998000000     0.622000000     1.203000000
H    -5.500000000     1.203000000     0.433000000
C    -4.898000000    -0.767000000     1.031000000
C    -5.459000000    -1.347000000    -0.240000000
H    -6.217000000    -0.614000000    -0.524000000
H    -5.932000000    -2.316000000    -0.068000000
C    -4.373000000    -1.378000000    -1.399000000
C    -4.146000000    -0.306000000    -2.297000000
H    -4.735000000     0.607000000    -2.267000000
C    -3.521000000    -2.470000000    -1.409000000
C    -2.463000000    -2.490000000    -2.329000000
H    -1.739000000    -3.291000000    -2.203000000
C    -2.293000000    -1.463000000    -3.286000000
O    -1.231000000    -1.629000000    -4.182000000
C    -0.116000000    -0.730000000    -3.992000000
C     1.263000000    -1.447000000    -4.153000000
C     2.361000000    -0.742000000    -4.612000000
H     2.265000000     0.330000000    -4.765000000
C     1.395000000    -2.840000000    -3.922000000
H     0.502000000    -3.377000000    -3.614000000
O    -0.252000000     0.390000000    -4.868000000
H    -0.237000000    -0.400000000    -2.950000000
C    -3.177000000    -0.392000000    -3.282000000
C    -3.135000000     0.660000000    -4.381000000
H    -4.119000000     1.127000000    -4.462000000
H    -2.800000000     0.131000000    -5.276000000
C    -2.139000000     1.737000000    -4.102000000
C    -2.469000000     2.784000000    -3.205000000
H    -3.461000000     2.768000000    -2.760000000
C    -0.780000000     1.553000000    -4.404000000
C     0.165000000     2.425000000    -3.899000000
H     1.208000000     2.123000000    -3.857000000
C    -0.226000000     3.607000000    -3.246000000
O     0.752000000     4.359000000    -2.608000000
C     1.119000000     3.851000000    -1.290000000
C     2.589000000     3.818000000    -0.980000000
C     3.496000000     3.670000000    -2.065000000
H     3.141000000     3.618000000    -3.091000000
C     3.057000000     3.739000000     0.359000000
H     2.368000000     3.827000000     1.195000000
O     0.500000000     4.739000000    -0.329000000
H     0.741000000     2.826000000    -1.157000000
C    -1.588000000     3.754000000    -2.881000000
C    -2.048000000     4.795000000    -1.774000000
H    -3.071000000     5.153000000    -1.902000000
H    -1.509000000     5.738000000    -1.889000000
C    -1.952000000     4.348000000    -0.351000000
C    -0.659000000     4.321000000     0.336000000
C    -0.561000000     4.090000000     1.722000000
H     0.397000000     4.083000000     2.237000000
C    -1.746000000     3.578000000     2.361000000
O    -1.562000000     3.068000000     3.599000000
C    -1.503000000     1.602000000     3.725000000
H    -1.216000000     1.301000000     2.707000000
C    -0.352000000     1.119000000     4.642000000
C    -0.235000000    -0.180000000     5.030000000
H    -0.867000000    -0.907000000     4.527000000
C     0.614000000     2.079000000     5.044000000
H     0.676000000     3.104000000     4.686000000
C     1.654000000     1.615000000     5.783000000
O     2.675000000     2.499000000     6.060000000
C     1.791000000     0.277000000     6.078000000
H     2.658000000     0.008000000     6.676000000
C     0.786000000    -0.610000000     5.769000000
O     1.082000000    -1.922000000     5.864000000
C     0.171000000    -2.922000000     5.946000000
C     0.259000000    -4.008000000     5.137000000
H     1.038000000    -4.066000000     4.381000000
C    -0.854000000    -2.762000000     6.869000000
H    -0.745000000    -1.911000000     7.536000000
C    -1.918000000    -3.664000000     6.889000000
H    -2.844000000    -3.516000000     7.440000000
C    -1.863000000    -4.783000000     6.010000000
H    -2.639000000    -5.542000000     6.063000000
C    -0.753000000    -4.976000000     5.171000000
O    -0.645000000    -5.919000000     4.235000000
C    -0.984000000    -5.648000000     2.962000000
C    -0.251000000    -6.349000000     1.989000000
H     0.445000000    -7.143000000     2.248000000
C    -0.513000000    -6.052000000     0.619000000
O     0.286000000    -6.697000000    -0.326000000
C     0.341000000    -6.481000000    -1.707000000
C     1.470000000    -5.878000000    -2.249000000
H     2.304000000    -5.787000000    -1.558000000
C    -0.722000000    -6.861000000    -2.558000000
H    -1.612000000    -7.273000000    -2.090000000
C    -0.561000000    -6.596000000    -3.979000000
H    -1.417000000    -6.790000000    -4.621000000
C     0.598000000    -5.990000000    -4.429000000
H     0.644000000    -5.727000000    -5.483000000
C     1.582000000    -5.590000000    -3.576000000
O     2.687000000    -4.895000000    -4.082000000
C     2.632000000    -3.510000000    -4.239000000
C     3.698000000    -2.750000000    -4.689000000
H     4.655000000    -3.224000000    -4.893000000
C     3.575000000    -1.359000000    -4.826000000
O     4.561000000    -0.601000000    -5.417000000
C     4.685000000     0.786000000    -5.334000000
C     5.077000000     1.376000000    -4.144000000
H     5.296000000     0.709000000    -3.314000000
C     4.383000000     1.611000000    -6.411000000
H     4.193000000     1.147000000    -7.375000000
C     4.550000000     2.998000000    -6.317000000
H     4.278000000     3.664000000    -7.132000000
C     5.014000000     3.613000000    -5.141000000
H     5.119000000     4.695000000    -5.111000000
C     5.229000000     2.757000000    -4.047000000
O     5.722000000     3.286000000    -2.836000000
C     4.852000000     3.418000000    -1.781000000
C     5.305000000     3.479000000    -0.483000000
H     6.381000000     3.458000000    -0.332000000
C     4.392000000     3.581000000     0.576000000
O     4.929000000     3.726000000     1.885000000
C     4.192000000     3.989000000     3.010000000
C     3.900000000     5.285000000     3.321000000
H     4.240000000     6.030000000     2.607000000
C     3.435000000     5.726000000     4.561000000
H     3.292000000     6.774000000     4.811000000
C     2.975000000     4.716000000     5.431000000
H     2.410000000     4.894000000     6.343000000
C     3.278000000     3.416000000     5.149000000
C     3.866000000     2.987000000     3.912000000
H     4.061000000     1.925000000     3.790000000
C     2.261000000    -0.672000000     0.160000000
H     3.178000000    -0.566000000    -0.414000000
C     1.069000000    -0.181000000    -0.406000000
H     1.076000000     0.380000000    -1.337000000
C    -0.069000000    -0.273000000     0.358000000
H    -0.921000000     0.215000000     0.042000000
C    -0.074000000    -1.078000000     1.511000000
H    -0.995000000    -1.353000000     2.020000000
C     1.084000000    -1.767000000     1.916000000
H     1.133000000    -2.663000000     2.528000000
C     2.273000000    -1.426000000     1.346000000
C     3.588000000    -2.064000000     1.755000000
O     3.525000000    -3.083000000     2.444000000
O     4.612000000    -1.737000000     1.200000000
O     7.634000000     1.034000000    -2.111000000
H     7.042000000     0.967000000    -1.362000000
H     7.388000000     1.855000000    -2.538000000
O     3.417000000    -5.050000000     0.484000000
H     3.271000000    -4.349000000     1.119000000
H     4.204000000    -4.784000000     0.009000000
O     7.816000000    -5.081000000     0.654000000
H     6.976000000    -4.646000000     0.507000000
H     7.917000000    -5.667000000    -0.096000000
O     7.093000000    -6.998000000     2.485000000
H     7.500000000    -6.205000000     2.137000000
H     7.132000000    -7.624000000     1.762000000
O     6.002000000     0.522000000    -0.013000000
H     5.389000000    -0.205000000     0.104000000
H     5.889000000     1.059000000     0.771000000
O     6.851000000    -1.450000000     2.635000000
H     6.701000000    -0.518000000     2.795000000
H     6.126000000    -1.715000000     2.068000000
O     7.647000000    -1.811000000    -1.800000000
H     7.606000000    -1.123000000    -2.463000000
H     8.013000000    -1.379000000    -1.028000000
O     3.653000000    -5.393000000     3.847000000
H     4.490000000    -5.331000000     4.308000000
H     3.641000000    -4.630000000     3.269000000
O     2.963000000    -7.902000000     3.026000000
H     3.276000000    -7.027000000     3.251000000
H     3.641000000    -8.492000000     3.353000000
O     6.312000000    -5.835000000     5.112000000
H     6.910000000    -6.286000000     4.515000000
H     6.462000000    -4.905000000     4.944000000
O     6.779000000     1.503000000     2.764000000
H     7.659000000     1.401000000     3.126000000
H     6.791000000     2.364000000     2.346000000
O     3.053000000    -7.809000000     0.260000000
H     2.959000000    -6.865000000     0.133000000
H     2.862000000    -7.945000000     1.188000000
O     5.839000000    -0.173000000     5.305000000
H     5.531000000     0.426000000     4.625000000
H     5.086000000    -0.733000000     5.490000000
O     5.968000000    -3.528000000    -0.419000000
H     6.602000000    -3.029000000    -0.935000000
H     5.357000000    -2.869000000    -0.090000000
O     3.984000000    -1.892000000     4.832000000
H     3.038000000    -1.833000000     4.968000000
H     4.079000000    -2.355000000     4.000000000
O     6.828000000    -3.312000000     4.600000000
H     7.051000000    -2.800000000     5.377000000
H     6.682000000    -2.657000000     3.916000000
O     8.620000000    -0.787000000     0.458000000
H     8.412000000    -1.310000000     1.232000000
H     9.117000000    -0.043000000     0.798000000
O     4.650000000    -3.864000000     7.091000000
H     4.362000000    -3.546000000     6.236000000
H     4.668000000    -4.817000000     6.999000000
O     5.049000000    -5.978000000    -2.199000000
H     5.715000000    -6.504000000    -1.755000000
H     5.347000000    -5.074000000    -2.088000000
