215
-1442.56332
C    -0.875000000    -5.078000000    -0.391000000
H    -0.982000000    -4.753000000    -1.423000000
C    -1.650000000    -4.423000000     0.605000000
C    -1.438000000    -4.730000000     1.918000000
H    -1.987000000    -4.225000000     2.709000000
C    -2.575000000    -3.311000000     0.313000000
O    -3.180000000    -3.568000000    -0.979000000
H    -1.892000000    -2.449000000     0.284000000
O    -3.559000000    -3.048000000     1.374000000
C    -3.852000000    -1.704000000     1.741000000
C    -3.157000000    -1.116000000     2.817000000
H    -2.459000000    -1.689000000     3.422000000
C    -3.384000000     0.196000000     3.245000000
O    -2.669000000     0.754000000     4.286000000
C    -4.225000000     1.050000000     2.427000000
C    -4.306000000     2.527000000     2.675000000
H    -5.160000000     2.999000000     2.186000000
C    -3.080000000     3.270000000     2.162000000
C    -3.100000000     3.616000000     0.818000000
H    -4.032000000     3.514000000     0.268000000
H    -4.422000000     2.566000000     3.760000000
C    -4.753000000     0.501000000     1.265000000
H    -5.297000000     1.127000000     0.563000000
C    -4.633000000    -0.863000000     0.905000000
C    -5.152000000    -1.351000000    -0.465000000
H    -5.957000000    -0.687000000    -0.789000000
H    -5.565000000    -2.359000000    -0.391000000
C    -4.123000000    -1.359000000    -1.587000000
C    -4.153000000    -0.223000000    -2.402000000
H    -4.792000000     0.603000000    -2.099000000
C    -3.219000000    -2.442000000    -1.822000000
C    -2.562000000    -2.431000000    -2.995000000
H    -1.897000000    -3.240000000    -3.287000000
C    -2.522000000    -1.238000000    -3.759000000
O    -1.575000000    -1.193000000    -4.747000000
C    -0.380000000    -0.449000000    -4.360000000
C     0.904000000    -1.147000000    -4.762000000
C     1.975000000    -0.366000000    -5.248000000
H     1.795000000     0.663000000    -5.549000000
C     1.159000000    -2.545000000    -4.607000000
H     0.378000000    -3.245000000    -4.323000000
O    -0.373000000     0.958000000    -4.873000000
H    -0.267000000    -0.467000000    -3.266000000
C    -3.321000000    -0.189000000    -3.518000000
C    -3.279000000     1.051000000    -4.291000000
H    -4.176000000     1.669000000    -4.206000000
H    -3.071000000     0.886000000    -5.350000000
C    -2.260000000     2.095000000    -3.710000000
C    -2.650000000     3.093000000    -2.780000000
H    -3.595000000     2.997000000    -2.252000000
C    -0.907000000     1.949000000    -4.060000000
C     0.007000000     2.949000000    -3.643000000
H     1.083000000     2.877000000    -3.782000000
C    -0.441000000     3.852000000    -2.730000000
O     0.549000000     4.525000000    -2.001000000
C     0.842000000     4.073000000    -0.647000000
C     2.352000000     4.004000000    -0.406000000
C     3.140000000     3.556000000    -1.427000000
H     2.742000000     3.394000000    -2.426000000
C     2.960000000     4.223000000     0.826000000
H     2.353000000     4.564000000     1.662000000
O     0.244000000     4.893000000     0.373000000
H     0.516000000     3.023000000    -0.599000000
C    -1.731000000     4.010000000    -2.289000000
C    -2.204000000     4.976000000    -1.149000000
H    -3.258000000     5.198000000    -1.330000000
H    -1.700000000     5.933000000    -1.298000000
C    -2.059000000     4.323000000     0.238000000
C    -0.888000000     4.448000000     0.980000000
C    -0.771000000     4.007000000     2.269000000
H     0.124000000     4.098000000     2.880000000
C    -1.890000000     3.449000000     2.871000000
O    -1.747000000     2.837000000     4.095000000
C    -1.446000000     1.432000000     3.942000000
H    -1.224000000     1.198000000     2.890000000
C    -0.320000000     0.895000000     4.794000000
C    -0.329000000    -0.417000000     5.190000000
H    -1.097000000    -1.102000000     4.841000000
C     0.790000000     1.702000000     5.015000000
H     0.857000000     2.736000000     4.686000000
C     1.859000000     1.181000000     5.663000000
O     2.962000000     1.866000000     6.058000000
C     1.839000000    -0.136000000     6.159000000
H     2.639000000    -0.581000000     6.745000000
C     0.745000000    -0.985000000     5.874000000
O     0.926000000    -2.308000000     6.162000000
C    -0.018000000    -3.287000000     5.885000000
C     0.093000000    -4.026000000     4.747000000
H     0.770000000    -3.759000000     3.939000000
C    -0.959000000    -3.653000000     6.805000000
H    -0.938000000    -3.046000000     7.707000000
C    -1.923000000    -4.704000000     6.578000000
H    -2.766000000    -4.949000000     7.219000000
C    -1.661000000    -5.576000000     5.488000000
H    -2.298000000    -6.446000000     5.349000000
C    -0.581000000    -5.259000000     4.623000000
O    -0.303000000    -6.102000000     3.519000000
C    -0.656000000    -5.807000000     2.205000000
C     0.065000000    -6.508000000     1.249000000
H     0.819000000    -7.222000000     1.569000000
C    -0.003000000    -6.116000000    -0.100000000
O     0.725000000    -6.819000000    -1.080000000
C     0.823000000    -6.458000000    -2.385000000
C     1.739000000    -5.564000000    -2.794000000
H     2.409000000    -5.104000000    -2.073000000
C     0.074000000    -7.145000000    -3.281000000
H    -0.634000000    -7.883000000    -2.912000000
C     0.073000000    -6.845000000    -4.604000000
H    -0.642000000    -7.334000000    -5.260000000
C     1.035000000    -5.923000000    -5.046000000
H     1.178000000    -5.833000000    -6.120000000
C     1.841000000    -5.268000000    -4.151000000
O     2.763000000    -4.270000000    -4.580000000
C     2.396000000    -3.030000000    -4.926000000
C     3.427000000    -2.199000000    -5.220000000
H     4.358000000    -2.664000000    -5.535000000
C     3.204000000    -0.872000000    -5.444000000
O     4.258000000    -0.065000000    -5.827000000
C     4.408000000     1.211000000    -5.374000000
C     4.756000000     1.413000000    -4.011000000
H     4.905000000     0.560000000    -3.353000000
C     3.983000000     2.330000000    -6.075000000
H     3.693000000     2.170000000    -7.110000000
C     4.121000000     3.649000000    -5.583000000
H     3.834000000     4.580000000    -6.065000000
C     4.779000000     3.763000000    -4.378000000
H     5.026000000     4.740000000    -3.971000000
C     4.913000000     2.677000000    -3.520000000
O     5.367000000     2.977000000    -2.226000000
C     4.525000000     3.360000000    -1.213000000
C     5.120000000     3.540000000     0.034000000
H     6.174000000     3.318000000     0.181000000
C     4.315000000     3.949000000     1.051000000
O     4.878000000     4.209000000     2.258000000
C     4.231000000     4.197000000     3.510000000
C     3.811000000     5.439000000     4.018000000
H     3.905000000     6.344000000     3.423000000
C     3.088000000     5.447000000     5.233000000
H     2.660000000     6.400000000     5.534000000
C     2.888000000     4.301000000     5.956000000
H     2.337000000     4.326000000     6.893000000
C     3.343000000     3.060000000     5.448000000
C     3.985000000     2.964000000     4.169000000
H     4.117000000     1.974000000     3.739000000
C     2.649000000    -0.075000000    -0.638000000
H     3.404000000     0.037000000    -1.412000000
C     1.282000000     0.144000000    -0.909000000
H     1.000000000     0.317000000    -1.945000000
C     0.310000000     0.163000000     0.078000000
H    -0.742000000     0.395000000    -0.201000000
C     0.696000000    -0.173000000     1.400000000
H    -0.036000000    -0.208000000     2.203000000
C     2.079000000    -0.377000000     1.661000000
H     2.450000000    -0.546000000     2.668000000
C     3.037000000    -0.335000000     0.682000000
C     4.489000000    -0.617000000     0.978000000
O     4.899000000    -0.664000000     2.144000000
O     5.240000000    -0.800000000     0.087000000
O     9.353000000    -0.807000000    -1.938000000
H     9.567000000     0.126000000    -1.930000000
H     8.438000000    -0.845000000    -1.657000000
O     7.755000000    -1.542000000     2.050000000
H     6.898000000    -1.363000000     1.662000000
H     7.780000000    -0.997000000     2.836000000
O     2.795000000    -3.639000000     0.948000000
H     1.921000000    -3.259000000     1.035000000
H     3.082000000    -3.380000000     0.072000000
O     7.607000000    -4.928000000     0.826000000
H     7.843000000    -4.149000000     0.322000000
H     6.905000000    -5.337000000     0.321000000
O     7.208000000     0.813000000    -1.558000000
H     6.762000000     1.224000000    -2.299000000
H     6.504000000     0.423000000    -1.040000000
O     7.214000000    -2.830000000    -0.564000000
H     6.642000000    -2.241000000    -0.072000000
H     7.225000000    -2.470000000    -1.451000000
O     7.178000000     2.123000000     2.607000000
H     6.545000000     1.762000000     1.986000000
H     7.396000000     2.985000000     2.254000000
O     6.491000000    -3.887000000    -3.758000000
H     7.147000000    -4.364000000    -3.251000000
H     6.981000000    -3.511000000    -4.489000000
O    10.302000000    -1.909000000     0.562000000
H     9.497000000    -2.016000000     1.068000000
H    10.120000000    -1.176000000    -0.026000000
O     4.914000000    -3.090000000     2.888000000
H     4.284000000    -3.479000000     2.282000000
H     4.993000000    -2.180000000     2.601000000
O     7.237000000     2.741000000     5.546000000
H     7.645000000     3.596000000     5.683000000
H     6.626000000     2.880000000     4.822000000
O     6.774000000    -4.596000000     4.375000000
H     6.286000000    -3.994000000     3.813000000
H     7.211000000    -4.029000000     5.011000000
O     7.720000000     0.038000000     4.577000000
H     6.787000000    -0.178000000     4.554000000
H     7.756000000     0.967000000     4.351000000
O     3.703000000    -6.528000000     0.835000000
H     3.479000000    -5.618000000     1.026000000
H     3.454000000    -7.007000000     1.626000000
O     5.340000000     1.034000000     7.190000000
H     5.781000000     1.880000000     7.110000000
H     4.809000000     0.965000000     6.397000000
O     4.267000000    -3.173000000    -1.729000000
H     4.866000000    -3.313000000    -2.463000000
H     4.633000000    -2.424000000    -1.260000000
O     4.936000000    -0.267000000     4.656000000
H     4.280000000    -0.927000000     4.880000000
H     5.045000000    -0.349000000     3.709000000
O     9.747000000     1.101000000     1.618000000
H     8.892000000     1.278000000     2.011000000
H    10.113000000     0.394000000     2.150000000
O     3.903000000    -3.495000000     5.377000000
H     4.286000000    -3.244000000     4.537000000
H     3.617000000    -4.399000000     5.250000000
