215
-1435.13704
C    -0.604000000    -5.120000000    -1.317000000
H    -1.227000000    -4.938000000    -2.189000000
C    -1.041000000    -4.539000000    -0.135000000
C    -0.176000000    -4.555000000     0.945000000
H    -0.379000000    -3.918000000     1.802000000
C    -2.184000000    -3.617000000    -0.139000000
O    -3.086000000    -3.825000000    -1.228000000
H    -1.779000000    -2.596000000    -0.193000000
O    -2.979000000    -3.632000000     1.060000000
C    -3.345000000    -2.456000000     1.612000000
C    -2.710000000    -2.057000000     2.791000000
H    -1.868000000    -2.660000000     3.123000000
C    -3.025000000    -0.893000000     3.415000000
O    -2.176000000    -0.454000000     4.413000000
C    -3.952000000     0.000000000     2.853000000
C    -4.204000000     1.398000000     3.406000000
H    -5.276000000     1.553000000     3.265000000
C    -3.245000000     2.475000000     2.852000000
C    -3.646000000     3.150000000     1.649000000
H    -4.593000000     2.948000000     1.155000000
H    -4.087000000     1.432000000     4.491000000
C    -4.592000000    -0.420000000     1.708000000
H    -5.276000000     0.273000000     1.224000000
C    -4.310000000    -1.590000000     1.031000000
C    -5.072000000    -1.993000000    -0.192000000
H    -6.088000000    -1.594000000    -0.156000000
H    -5.192000000    -3.062000000     0.000000000
C    -4.308000000    -1.743000000    -1.458000000
C    -4.457000000    -0.474000000    -2.124000000
H    -5.029000000     0.256000000    -1.557000000
C    -3.473000000    -2.704000000    -2.056000000
C    -2.687000000    -2.446000000    -3.212000000
H    -1.906000000    -3.128000000    -3.539000000
C    -2.887000000    -1.197000000    -3.860000000
O    -2.090000000    -0.745000000    -4.851000000
C    -1.012000000     0.021000000    -4.304000000
C     0.335000000    -0.563000000    -4.822000000
C     1.473000000     0.148000000    -4.640000000
H     1.514000000     1.139000000    -4.197000000
C     0.505000000    -1.842000000    -5.348000000
H    -0.414000000    -2.395000000    -5.529000000
O    -1.156000000     1.406000000    -4.645000000
H    -0.953000000    -0.124000000    -3.215000000
C    -3.661000000    -0.154000000    -3.258000000
C    -3.928000000     1.165000000    -3.853000000
H    -4.955000000     1.409000000    -3.570000000
H    -3.962000000     1.153000000    -4.944000000
C    -2.941000000     2.135000000    -3.233000000
C    -3.357000000     2.892000000    -2.135000000
H    -4.335000000     2.862000000    -1.661000000
C    -1.641000000     2.263000000    -3.681000000
C    -0.683000000     3.003000000    -3.050000000
H     0.325000000     3.089000000    -3.449000000
C    -1.080000000     3.788000000    -1.948000000
O    -0.120000000     4.478000000    -1.341000000
C     0.295000000     4.110000000    -0.012000000
C     1.811000000     4.265000000     0.146000000
C     2.664000000     3.835000000    -0.849000000
H     2.307000000     3.406000000    -1.782000000
C     2.373000000     4.636000000     1.344000000
H     1.678000000     4.946000000     2.120000000
O    -0.367000000     4.907000000     1.046000000
H     0.106000000     3.038000000     0.147000000
C    -2.420000000     3.706000000    -1.532000000
C    -2.914000000     4.559000000    -0.311000000
H    -3.995000000     4.692000000    -0.389000000
H    -2.527000000     5.565000000    -0.488000000
C    -2.638000000     3.961000000     1.072000000
C    -1.366000000     4.168000000     1.695000000
C    -1.037000000     3.464000000     2.795000000
H    -0.048000000     3.585000000     3.228000000
C    -1.964000000     2.636000000     3.360000000
O    -1.570000000     1.819000000     4.391000000
C    -1.070000000     0.493000000     4.059000000
H    -0.917000000     0.523000000     2.970000000
C     0.247000000     0.161000000     4.774000000
C     0.728000000    -1.157000000     4.941000000
H     0.175000000    -1.950000000     4.445000000
C     1.069000000     1.235000000     5.123000000
H     0.791000000     2.261000000     4.898000000
C     2.226000000     1.015000000     5.846000000
O     3.008000000     2.077000000     6.248000000
C     2.650000000    -0.280000000     6.141000000
H     3.486000000    -0.385000000     6.828000000
C     1.930000000    -1.414000000     5.656000000
O     2.385000000    -2.662000000     5.869000000
C     1.700000000    -3.629000000     5.214000000
C     2.072000000    -4.021000000     3.945000000
H     2.934000000    -3.547000000     3.484000000
C     0.562000000    -4.257000000     5.773000000
H     0.412000000    -3.956000000     6.807000000
C    -0.148000000    -5.247000000     5.214000000
H    -0.965000000    -5.681000000     5.784000000
C     0.269000000    -5.632000000     3.951000000
H    -0.041000000    -6.576000000     3.510000000
C     1.349000000    -5.018000000     3.275000000
O     1.811000000    -5.361000000     2.022000000
C     0.953000000    -5.426000000     0.962000000
C     1.285000000    -6.118000000    -0.249000000
H     2.167000000    -6.746000000    -0.349000000
C     0.416000000    -5.976000000    -1.334000000
O     0.769000000    -6.668000000    -2.491000000
C     0.638000000    -6.275000000    -3.876000000
C     1.475000000    -5.288000000    -4.388000000
H     2.425000000    -5.009000000    -3.939000000
C    -0.587000000    -6.659000000    -4.475000000
H    -1.204000000    -7.424000000    -4.011000000
C    -0.864000000    -6.108000000    -5.739000000
H    -1.702000000    -6.437000000    -6.349000000
C     0.049000000    -5.202000000    -6.309000000
H    -0.085000000    -4.729000000    -7.278000000
C     1.155000000    -4.741000000    -5.597000000
O     1.893000000    -3.675000000    -6.154000000
C     1.756000000    -2.377000000    -5.699000000
C     2.847000000    -1.537000000    -5.595000000
H     3.829000000    -1.908000000    -5.879000000
C     2.679000000    -0.243000000    -5.145000000
O     3.787000000     0.533000000    -5.323000000
C     3.859000000     1.845000000    -4.808000000
C     4.494000000     2.051000000    -3.614000000
H     5.007000000     1.252000000    -3.084000000
C     3.343000000     2.932000000    -5.444000000
H     2.712000000     2.798000000    -6.319000000
C     3.454000000     4.207000000    -4.913000000
H     3.170000000     5.089000000    -5.480000000
C     4.090000000     4.391000000    -3.719000000
H     4.247000000     5.353000000    -3.240000000
C     4.564000000     3.301000000    -3.044000000
O     4.888000000     3.375000000    -1.702000000
C     4.041000000     3.820000000    -0.677000000
C     4.595000000     4.312000000     0.483000000
H     5.661000000     4.465000000     0.626000000
C     3.773000000     4.625000000     1.536000000
O     4.334000000     5.204000000     2.717000000
C     3.930000000     4.871000000     4.045000000
C     3.931000000     5.875000000     4.982000000
H     4.245000000     6.872000000     4.682000000
C     3.616000000     5.625000000     6.353000000
H     3.688000000     6.467000000     7.036000000
C     3.276000000     4.288000000     6.743000000
H     3.063000000     4.026000000     7.776000000
C     3.201000000     3.346000000     5.720000000
C     3.539000000     3.592000000     4.375000000
H     3.522000000     2.760000000     3.676000000
C     2.494000000     0.215000000    -0.333000000
H     3.314000000     0.653000000    -0.897000000
C     1.187000000     0.727000000    -0.376000000
H     0.901000000     1.506000000    -1.078000000
C     0.230000000     0.162000000     0.457000000
H    -0.736000000     0.528000000     0.421000000
C     0.579000000    -0.901000000     1.331000000
H    -0.176000000    -1.364000000     1.961000000
C     1.888000000    -1.400000000     1.315000000
H     2.079000000    -2.230000000     1.989000000
C     2.884000000    -0.819000000     0.544000000
C     4.264000000    -1.381000000     0.688000000
O     4.456000000    -2.159000000     1.582000000
O     5.211000000    -1.046000000    -0.019000000
O    10.179000000    -1.965000000     2.827000000
H    11.022000000    -2.387000000     2.663000000
H     9.737000000    -1.975000000     1.978000000
O    10.277000000     0.519000000    -0.685000000
H     9.624000000    -0.130000000    -0.425000000
H     9.773000000     1.317000000    -0.841000000
O     7.280000000    -1.932000000     1.640000000
H     6.407000000    -1.828000000     1.263000000
H     7.158000000    -2.549000000     2.362000000
O     4.836000000    -5.605000000    -1.775000000
H     5.755000000    -5.866000000    -1.730000000
H     4.414000000    -6.297000000    -2.284000000
O     7.444000000    -5.668000000     1.201000000
H     7.216000000    -6.560000000     1.461000000
H     6.602000000    -5.222000000     1.111000000
O     6.919000000    -0.431000000    -1.791000000
H     6.142000000    -0.636000000    -1.271000000
H     7.088000000    -1.228000000    -2.293000000
O     4.806000000    -3.788000000    -3.942000000
H     4.057000000    -3.214000000    -3.781000000
H     4.946000000    -4.240000000    -3.110000000
O     7.542000000     1.539000000    -3.289000000
H     7.344000000     0.857000000    -2.646000000
H     8.331000000     1.228000000    -3.733000000
O     6.673000000     1.232000000     0.660000000
H     6.677000000     1.879000000    -0.046000000
H     6.581000000     0.391000000     0.213000000
O     9.590000000    -2.520000000     0.096000000
H     9.426000000    -2.950000000    -0.743000000
H     8.736000000    -2.505000000     0.528000000
O     5.013000000    -4.590000000     1.295000000
H     4.393000000    -4.857000000     0.616000000
H     4.832000000    -3.661000000     1.432000000
O     4.970000000     1.044000000     2.967000000
H     4.661000000     0.141000000     3.049000000
H     5.314000000     1.099000000     2.075000000
O     3.861000000    -8.093000000     0.953000000
H     4.639000000    -8.366000000     1.440000000
H     3.986000000    -7.154000000     0.810000000
O     3.159000000    -2.030000000    -2.413000000
H     3.085000000    -1.248000000    -2.961000000
H     2.896000000    -1.737000000    -1.541000000
O     7.245000000     2.889000000     3.396000000
H     7.869000000     3.342000000     2.829000000
H     6.777000000     2.293000000     2.810000000
O     5.016000000    -2.385000000     4.253000000
H     4.181000000    -2.616000000     4.659000000
H     4.802000000    -2.236000000     3.332000000
O     7.225000000    -1.084000000     5.665000000
H     6.609000000    -1.368000000     4.990000000
H     7.130000000    -0.131000000     5.690000000
O     9.685000000     0.795000000     2.398000000
H     9.340000000     0.860000000     1.508000000
H     9.936000000    -0.124000000     2.492000000
O     5.132000000    -6.344000000     3.575000000
H     5.159000000    -5.651000000     2.916000000
H     5.973000000    -6.276000000     4.029000000
