215
-1448.75939
C     0.415000000    -4.660000000     0.084000000
H     0.073000000    -4.246000000    -0.862000000
C    -0.410000000    -4.444000000     1.191000000
C     0.123000000    -4.667000000     2.464000000
H    -0.413000000    -4.368000000     3.361000000
C    -1.676000000    -3.692000000     1.024000000
O    -2.482000000    -4.318000000    -0.010000000
H    -1.382000000    -2.662000000     0.773000000
O    -2.474000000    -3.616000000     2.199000000
C    -2.956000000    -2.365000000     2.486000000
C    -2.195000000    -1.708000000     3.437000000
H    -1.356000000    -2.244000000     3.872000000
C    -2.530000000    -0.388000000     3.821000000
O    -1.657000000     0.305000000     4.569000000
C    -3.669000000     0.175000000     3.259000000
C    -3.981000000     1.713000000     3.472000000
H    -5.046000000     1.942000000     3.402000000
C    -3.195000000     2.632000000     2.585000000
C    -3.873000000     3.115000000     1.464000000
H    -4.896000000     2.833000000     1.228000000
H    -3.750000000     1.973000000     4.507000000
C    -4.459000000    -0.540000000     2.343000000
H    -5.269000000     0.000000000     1.860000000
C    -4.058000000    -1.813000000     1.859000000
C    -4.829000000    -2.570000000     0.782000000
H    -5.832000000    -2.168000000     0.624000000
H    -4.943000000    -3.581000000     1.178000000
C    -4.152000000    -2.549000000    -0.518000000
C    -4.697000000    -1.615000000    -1.472000000
H    -5.481000000    -0.888000000    -1.275000000
C    -3.077000000    -3.377000000    -0.842000000
C    -2.540000000    -3.279000000    -2.182000000
H    -1.697000000    -3.860000000    -2.547000000
C    -2.956000000    -2.287000000    -3.022000000
O    -2.192000000    -1.895000000    -4.110000000
C    -1.153000000    -0.923000000    -3.895000000
C     0.170000000    -1.306000000    -4.629000000
C     1.155000000    -0.341000000    -4.875000000
H     0.808000000     0.662000000    -4.640000000
C     0.452000000    -2.672000000    -4.884000000
H    -0.263000000    -3.483000000    -4.767000000
O    -1.681000000     0.289000000    -4.457000000
H    -0.987000000    -0.725000000    -2.826000000
C    -3.970000000    -1.429000000    -2.687000000
C    -4.418000000    -0.261000000    -3.557000000
H    -5.482000000    -0.033000000    -3.465000000
H    -4.259000000    -0.523000000    -4.605000000
C    -3.627000000     0.974000000    -3.187000000
C    -4.099000000     1.930000000    -2.278000000
H    -5.103000000     1.830000000    -1.873000000
C    -2.346000000     1.153000000    -3.659000000
C    -1.563000000     2.198000000    -3.266000000
H    -0.528000000     2.318000000    -3.576000000
C    -2.071000000     3.175000000    -2.456000000
O    -1.209000000     4.204000000    -2.183000000
C    -0.423000000     4.285000000    -0.989000000
C     1.038000000     4.699000000    -1.196000000
C     1.763000000     4.426000000    -2.346000000
H     1.177000000     3.931000000    -3.115000000
C     1.727000000     5.215000000    -0.107000000
H     1.125000000     5.449000000     0.768000000
O    -1.172000000     5.095000000    -0.093000000
H    -0.424000000     3.285000000    -0.532000000
C    -3.297000000     3.094000000    -1.897000000
C    -3.863000000     4.127000000    -0.934000000
H    -4.932000000     3.938000000    -1.044000000
H    -3.608000000     5.152000000    -1.210000000
C    -3.323000000     3.986000000     0.470000000
C    -1.970000000     4.442000000     0.800000000
C    -1.309000000     3.968000000     1.973000000
H    -0.309000000     4.325000000     2.208000000
C    -1.900000000     3.036000000     2.811000000
O    -1.110000000     2.510000000     3.866000000
C    -0.793000000     1.154000000     3.805000000
H    -0.868000000     0.801000000     2.766000000
C     0.708000000     0.847000000     4.295000000
C     1.091000000    -0.359000000     4.916000000
H     0.292000000    -1.082000000     5.062000000
C     1.704000000     1.812000000     4.027000000
H     1.356000000     2.666000000     3.452000000
C     3.003000000     1.670000000     4.538000000
O     3.953000000     2.588000000     4.148000000
C     3.357000000     0.518000000     5.139000000
H     4.405000000     0.383000000     5.394000000
C     2.438000000    -0.519000000     5.321000000
O     2.858000000    -1.744000000     5.784000000
C     2.106000000    -2.938000000     5.809000000
C     2.292000000    -3.799000000     4.773000000
H     2.986000000    -3.559000000     3.972000000
C     1.350000000    -3.206000000     6.912000000
H     1.173000000    -2.440000000     7.663000000
C     0.751000000    -4.478000000     7.090000000
H     0.351000000    -4.690000000     8.078000000
C     0.864000000    -5.357000000     6.036000000
H     0.317000000    -6.295000000     5.990000000
C     1.594000000    -5.047000000     4.881000000
O     1.584000000    -5.890000000     3.833000000
C     1.331000000    -5.354000000     2.627000000
C     2.012000000    -5.809000000     1.508000000
H     2.943000000    -6.327000000     1.725000000
C     1.574000000    -5.447000000     0.236000000
O     2.378000000    -5.769000000    -0.895000000
C     1.792000000    -5.875000000    -2.126000000
C     2.361000000    -5.072000000    -3.079000000
H     3.128000000    -4.369000000    -2.765000000
C     0.835000000    -6.801000000    -2.333000000
H     0.469000000    -7.307000000    -1.443000000
C     0.363000000    -6.998000000    -3.657000000
H    -0.475000000    -7.675000000    -3.802000000
C     0.900000000    -6.111000000    -4.620000000
H     0.450000000    -6.168000000    -5.607000000
C     1.853000000    -5.144000000    -4.358000000
O     2.135000000    -4.260000000    -5.333000000
C     1.750000000    -2.947000000    -5.275000000
C     2.637000000    -1.973000000    -5.622000000
H     3.573000000    -2.338000000    -6.037000000
C     2.376000000    -0.625000000    -5.398000000
O     3.264000000     0.314000000    -5.803000000
C     3.174000000     1.730000000    -5.740000000
C     3.653000000     2.475000000    -4.693000000
H     4.123000000     2.052000000    -3.809000000
C     2.711000000     2.328000000    -6.869000000
H     2.366000000     1.743000000    -7.718000000
C     2.579000000     3.784000000    -6.825000000
H     2.226000000     4.251000000    -7.741000000
C     2.928000000     4.477000000    -5.714000000
H     2.770000000     5.551000000    -5.664000000
C     3.553000000     3.847000000    -4.652000000
O     3.911000000     4.516000000    -3.568000000
C     3.152000000     4.705000000    -2.427000000
C     3.759000000     5.264000000    -1.330000000
H     4.827000000     5.465000000    -1.284000000
C     3.079000000     5.527000000    -0.140000000
O     3.717000000     6.168000000     0.867000000
C     3.618000000     5.674000000     2.177000000
C     3.438000000     6.572000000     3.176000000
H     3.393000000     7.645000000     3.004000000
C     3.302000000     6.174000000     4.490000000
H     3.234000000     6.864000000     5.327000000
C     3.460000000     4.835000000     4.873000000
H     3.399000000     4.591000000     5.931000000
C     3.769000000     3.919000000     3.845000000
C     3.853000000     4.303000000     2.503000000
H     4.026000000     3.613000000     1.681000000
C     1.953000000    -0.495000000    -1.512000000
H     2.405000000    -0.329000000    -2.486000000
C     0.763000000     0.167000000    -1.176000000
H     0.376000000     0.827000000    -1.948000000
C     0.103000000    -0.109000000     0.034000000
H    -0.858000000     0.428000000     0.268000000
C     0.695000000    -0.941000000     0.941000000
H     0.235000000    -1.202000000     1.890000000
C     2.058000000    -1.454000000     0.683000000
H     2.498000000    -2.161000000     1.381000000
C     2.672000000    -1.265000000    -0.581000000
C     4.002000000    -1.983000000    -0.910000000
O     4.573000000    -2.668000000    -0.113000000
O     4.471000000    -1.774000000    -2.020000000
O     5.313000000    -4.107000000    -5.961000000
H     4.818000000    -4.678000000    -6.549000000
H     5.775000000    -3.505000000    -6.544000000
O     7.269000000    -1.482000000    -0.133000000
H     6.348000000    -1.691000000     0.022000000
H     7.252000000    -0.837000000    -0.840000000
O     5.089000000    -7.051000000     0.650000000
H     5.319000000    -6.525000000    -0.116000000
H     4.349000000    -7.585000000     0.361000000
O     7.813000000    -3.922000000     1.139000000
H     7.849000000    -3.218000000     0.492000000
H     6.892000000    -3.963000000     1.397000000
O     8.864000000    -3.750000000    -3.849000000
H     9.114000000    -3.029000000    -3.272000000
H     7.920000000    -3.646000000    -3.968000000
O     5.994000000     0.203000000    -2.902000000
H     5.460000000    -0.356000000    -2.338000000
H     6.179000000     0.975000000    -2.368000000
O     5.679000000    -4.723000000    -0.993000000
H     5.293000000    -3.951000000    -0.580000000
H     5.885000000    -4.440000000    -1.884000000
O     6.634000000     2.212000000    -0.509000000
H     6.768000000     3.043000000    -0.053000000
H     7.240000000     1.605000000    -0.083000000
O     4.765000000    -0.053000000     2.546000000
H     4.825000000    -1.008000000     2.525000000
H     3.944000000     0.146000000     2.095000000
O     5.530000000    -5.548000000     3.136000000
H     5.427000000    -6.144000000     2.395000000
H     6.396000000    -5.752000000     3.489000000
O     8.169000000    -6.472000000    -0.119000000
H     7.477000000    -6.758000000     0.478000000
H     7.961000000    -5.556000000    -0.304000000
O     7.264000000     0.164000000     3.813000000
H     6.452000000     0.023000000     3.326000000
H     7.391000000     1.112000000     3.798000000
O     9.236000000    -3.215000000     3.616000000
H     8.703000000    -3.311000000     2.826000000
H     8.599000000    -3.156000000     4.328000000
O     6.073000000    -3.206000000    -3.412000000
H     5.544000000    -2.596000000    -2.898000000
H     5.860000000    -2.999000000    -4.322000000
O     5.428000000    -2.892000000     2.302000000
H     5.383000000    -3.796000000     2.613000000
H     4.824000000    -2.863000000     1.560000000
O     9.549000000    -0.649000000     1.331000000
H     9.412000000    -0.545000000     2.273000000
H     8.699000000    -0.937000000     0.997000000
O     5.598000000    -6.206000000    -4.318000000
H     5.593000000    -5.972000000    -3.390000000
H     5.515000000    -5.370000000    -4.776000000
O     6.269000000    -0.957000000    -5.406000000
H     5.880000000    -0.839000000    -4.539000000
H     5.937000000    -0.221000000    -5.920000000
O     9.164000000     0.662000000    -3.120000000
H     8.994000000     0.479000000    -4.044000000
H     9.365000000    -0.192000000    -2.739000000
