215
-1476.37902
C    -5.125000000     1.551000000    -1.986000000
H    -4.663000000     2.329000000    -2.588000000
C    -4.911000000     1.521000000    -0.618000000
C    -5.641000000     0.515000000     0.112000000
H    -5.611000000     0.482000000     1.198000000
C    -3.824000000     2.401000000     0.012000000
O    -3.645000000     3.516000000    -0.830000000
H    -2.885000000     1.832000000     0.065000000
O    -4.202000000     2.909000000     1.338000000
C    -3.137000000     3.053000000     2.228000000
C    -2.974000000     1.957000000     3.074000000
H    -3.643000000     1.115000000     2.918000000
C    -1.909000000     1.881000000     3.951000000
O    -1.681000000     0.677000000     4.707000000
C    -0.945000000     2.863000000     3.903000000
C     0.176000000     2.870000000     4.844000000
H     0.540000000     3.900000000     4.855000000
C     1.348000000     2.144000000     4.272000000
C     2.315000000     2.790000000     3.460000000
H     2.200000000     3.841000000     3.206000000
H    -0.197000000     2.572000000     5.825000000
C    -1.092000000     3.951000000     2.997000000
H    -0.335000000     4.730000000     2.993000000
C    -2.217000000     4.069000000     2.199000000
C    -2.340000000     5.135000000     1.158000000
H    -1.722000000     5.962000000     1.513000000
H    -3.372000000     5.488000000     1.113000000
C    -1.682000000     4.751000000    -0.210000000
C    -0.334000000     4.988000000    -0.442000000
H     0.264000000     5.430000000     0.351000000
C    -2.386000000     3.967000000    -1.118000000
C    -1.716000000     3.551000000    -2.277000000
H    -2.267000000     2.907000000    -2.957000000
C    -0.358000000     3.763000000    -2.535000000
O     0.222000000     3.040000000    -3.532000000
C     1.166000000     2.025000000    -3.202000000
C     0.952000000     0.784000000    -4.144000000
C     1.973000000    -0.063000000    -4.579000000
H     2.988000000     0.293000000    -4.424000000
C    -0.367000000     0.319000000    -4.311000000
H    -1.111000000     1.066000000    -4.047000000
O     2.491000000     2.535000000    -3.238000000
H     0.924000000     1.767000000    -2.161000000
C     0.314000000     4.525000000    -1.617000000
C     1.758000000     4.951000000    -1.700000000
H     1.952000000     5.938000000    -1.274000000
H     1.992000000     5.189000000    -2.740000000
C     2.603000000     3.818000000    -1.211000000
C     3.040000000     3.941000000     0.089000000
H     2.664000000     4.693000000     0.777000000
C     2.988000000     2.767000000    -2.004000000
C     3.826000000     1.746000000    -1.507000000
H     4.104000000     0.842000000    -2.043000000
C     4.209000000     1.832000000    -0.188000000
O     5.001000000     0.776000000     0.281000000
C     4.241000000    -0.284000000     0.992000000
C     4.557000000    -1.636000000     0.459000000
C     5.111000000    -1.811000000    -0.802000000
H     5.467000000    -1.013000000    -1.449000000
C     4.004000000    -2.719000000     1.126000000
H     3.408000000    -2.618000000     2.030000000
O     4.386000000    -0.016000000     2.400000000
H     3.194000000    -0.079000000     0.723000000
C     3.892000000     2.970000000     0.628000000
C     4.446000000     2.993000000     2.072000000
H     4.577000000     4.037000000     2.362000000
H     5.451000000     2.577000000     2.171000000
C     3.477000000     2.142000000     3.000000000
C     3.527000000     0.759000000     3.139000000
C     2.608000000     0.040000000     3.910000000
H     2.716000000    -1.040000000     3.968000000
C     1.505000000     0.751000000     4.428000000
O     0.545000000    -0.015000000     4.975000000
C    -0.630000000    -0.151000000     4.185000000
H    -0.403000000     0.021000000     3.123000000
C    -1.102000000    -1.588000000     4.221000000
C    -2.265000000    -1.944000000     3.506000000
H    -2.833000000    -1.114000000     3.093000000
C    -0.379000000    -2.644000000     4.793000000
H     0.571000000    -2.589000000     5.318000000
C    -0.695000000    -3.962000000     4.478000000
O     0.238000000    -4.907000000     4.880000000
C    -1.776000000    -4.292000000     3.707000000
H    -1.991000000    -5.342000000     3.528000000
C    -2.540000000    -3.251000000     3.242000000
O    -3.577000000    -3.582000000     2.418000000
C    -4.797000000    -3.026000000     2.460000000
C    -5.200000000    -2.178000000     1.424000000
H    -4.585000000    -2.141000000     0.529000000
C    -5.686000000    -3.301000000     3.524000000
H    -5.249000000    -3.920000000     4.303000000
C    -6.909000000    -2.664000000     3.572000000
H    -7.572000000    -2.938000000     4.388000000
C    -7.448000000    -2.097000000     2.380000000
H    -8.476000000    -1.817000000     2.163000000
C    -6.591000000    -1.868000000     1.358000000
O    -7.070000000    -1.453000000     0.132000000
C    -6.450000000    -0.465000000    -0.557000000
C    -6.695000000    -0.253000000    -1.886000000
H    -7.264000000    -0.949000000    -2.498000000
C    -6.035000000     0.746000000    -2.580000000
O    -6.231000000     0.867000000    -3.946000000
C    -5.139000000     0.635000000    -4.788000000
C    -4.161000000    -0.316000000    -4.537000000
H    -4.316000000    -0.931000000    -3.655000000
C    -4.942000000     1.593000000    -5.774000000
H    -5.767000000     2.282000000    -5.941000000
C    -3.875000000     1.440000000    -6.612000000
H    -3.765000000     2.185000000    -7.396000000
C    -2.874000000     0.493000000    -6.429000000
H    -2.043000000     0.352000000    -7.115000000
C    -3.001000000    -0.368000000    -5.305000000
O    -2.003000000    -1.263000000    -5.024000000
C    -0.676000000    -0.850000000    -4.991000000
C     0.398000000    -1.650000000    -5.411000000
H     0.264000000    -2.598000000    -5.925000000
C     1.738000000    -1.256000000    -5.276000000
O     2.746000000    -2.092000000    -5.744000000
C     4.012000000    -2.164000000    -5.262000000
C     4.293000000    -2.477000000    -3.899000000
H     3.414000000    -2.560000000    -3.265000000
C     5.052000000    -2.158000000    -6.172000000
H     4.839000000    -1.968000000    -7.221000000
C     6.387000000    -2.444000000    -5.868000000
H     7.245000000    -2.346000000    -6.529000000
C     6.633000000    -2.759000000    -4.499000000
H     7.677000000    -2.863000000    -4.216000000
C     5.558000000    -2.776000000    -3.564000000
O     5.889000000    -3.363000000    -2.407000000
C     5.269000000    -3.109000000    -1.204000000
C     4.761000000    -4.202000000    -0.525000000
H     4.943000000    -5.191000000    -0.939000000
C     4.114000000    -4.039000000     0.654000000
O     3.526000000    -5.106000000     1.369000000
C     3.168000000    -4.929000000     2.642000000
C     4.209000000    -4.822000000     3.627000000
H     5.246000000    -5.007000000     3.358000000
C     3.905000000    -4.746000000     4.968000000
H     4.666000000    -4.855000000     5.737000000
C     2.542000000    -4.794000000     5.379000000
H     2.340000000    -4.675000000     6.440000000
C     1.554000000    -4.826000000     4.442000000
C     1.881000000    -4.864000000     3.090000000
H     1.056000000    -5.036000000     2.403000000
C    -1.483000000    -1.542000000    -1.595000000
H    -2.072000000    -1.692000000    -2.496000000
C    -1.088000000    -0.202000000    -1.217000000
H    -1.333000000     0.701000000    -1.772000000
C    -0.248000000    -0.099000000    -0.068000000
H    -0.014000000     0.912000000     0.290000000
C     0.258000000    -1.231000000     0.582000000
H     0.901000000    -1.112000000     1.451000000
C    -0.044000000    -2.456000000     0.105000000
H     0.382000000    -3.371000000     0.509000000
C    -0.898000000    -2.685000000    -0.967000000
C    -1.149000000    -4.047000000    -1.450000000
O    -0.328000000    -4.943000000    -1.176000000
O    -2.106000000    -4.224000000    -2.221000000
O    -1.623000000    -6.496000000    -7.362000000
H    -1.868000000    -7.066000000    -6.633000000
H    -1.170000000    -5.761000000    -6.950000000
O     0.689000000    -8.773000000    -3.801000000
H     0.476000000    -9.642000000    -4.142000000
H     0.356000000    -8.780000000    -2.904000000
O    -0.599000000    -6.350000000     1.314000000
H    -0.577000000    -5.943000000     0.447000000
H    -1.531000000    -6.456000000     1.505000000
O    -6.701000000    -5.641000000     0.363000000
H    -6.992000000    -4.738000000     0.489000000
H    -5.866000000    -5.562000000    -0.099000000
O     1.968000000    -6.140000000    -0.898000000
H     1.046000000    -6.012000000    -1.122000000
H     2.117000000    -5.557000000    -0.153000000
O     1.246000000    -5.130000000    -5.483000000
H     0.546000000    -5.170000000    -4.831000000
H     1.780000000    -4.382000000    -5.215000000
O    -1.640000000    -4.298000000    -4.864000000
H    -1.693000000    -4.543000000    -3.941000000
H    -1.713000000    -3.343000000    -4.863000000
O    -1.815000000    -8.017000000    -5.016000000
H    -0.885000000    -8.099000000    -4.805000000
H    -2.196000000    -7.579000000    -4.255000000
O    -4.378000000    -4.016000000    -4.177000000
H    -3.787000000    -4.134000000    -4.920000000
H    -3.871000000    -4.306000000    -3.419000000
O     0.312000000    -8.428000000    -1.254000000
H     0.935000000    -8.358000000    -0.530000000
H    -0.540000000    -8.252000000    -0.854000000
O    -5.038000000    -8.575000000    -4.626000000
H    -4.427000000    -7.937000000    -4.257000000
H    -4.777000000    -8.653000000    -5.544000000
O    -3.337000000    -6.842000000     1.704000000
H    -3.871000000    -7.081000000     2.462000000
H    -3.661000000    -5.979000000     1.446000000
O     1.509000000    -4.091000000    -2.923000000
H     0.795000000    -4.108000000    -2.285000000
H     2.085000000    -4.808000000    -2.657000000
O     1.577000000    -8.048000000     1.510000000
H     0.967000000    -7.310000000     1.498000000
H     2.436000000    -7.646000000     1.645000000
O     2.851000000    -7.186000000    -4.258000000
H     2.089000000    -7.582000000    -3.835000000
H     2.490000000    -6.467000000    -4.778000000
O    -2.366000000    -8.538000000    -0.484000000
H    -2.660000000    -8.252000000     0.381000000
H    -2.487000000    -9.488000000    -0.476000000
O    -4.709000000    -4.524000000    -1.176000000
H    -5.081000000    -4.012000000    -1.894000000
H    -3.775000000    -4.578000000    -1.378000000
O    -7.276000000    -4.375000000    -3.978000000
H    -7.575000000    -4.781000000    -4.791000000
H    -6.338000000    -4.236000000    -4.110000000
O    -2.639000000    -6.630000000    -2.822000000
H    -2.266000000    -5.781000000    -2.586000000
H    -2.583000000    -7.148000000    -2.019000000
