215
-1429.23142
C    -2.751000000    -4.657000000     0.405000000
H    -3.251000000    -4.774000000    -0.553000000
C    -2.923000000    -3.410000000     1.043000000
C    -2.396000000    -3.211000000     2.369000000
H    -2.388000000    -2.218000000     2.811000000
C    -3.607000000    -2.271000000     0.276000000
O    -4.166000000    -2.650000000    -1.018000000
H    -2.773000000    -1.592000000     0.046000000
O    -4.526000000    -1.489000000     1.041000000
C    -4.437000000    -0.097000000     1.070000000
C    -3.900000000     0.420000000     2.219000000
H    -3.584000000    -0.260000000     3.006000000
C    -3.603000000     1.824000000     2.257000000
O    -2.859000000     2.405000000     3.328000000
C    -3.922000000     2.650000000     1.120000000
C    -3.673000000     4.183000000     1.078000000
H    -4.423000000     4.602000000     0.405000000
C    -2.256000000     4.460000000     0.579000000
C    -2.018000000     4.711000000    -0.733000000
H    -2.816000000     4.619000000    -1.465000000
H    -3.780000000     4.698000000     2.035000000
C    -4.544000000     2.022000000     0.030000000
H    -4.840000000     2.630000000    -0.821000000
C    -4.699000000     0.643000000    -0.037000000
C    -5.355000000    -0.030000000    -1.227000000
H    -6.111000000     0.664000000    -1.601000000
H    -5.948000000    -0.875000000    -0.874000000
C    -4.371000000    -0.613000000    -2.226000000
C    -3.766000000     0.217000000    -3.152000000
H    -4.131000000     1.239000000    -3.225000000
C    -3.839000000    -1.905000000    -2.088000000
C    -2.939000000    -2.387000000    -3.008000000
H    -2.599000000    -3.411000000    -2.870000000
C    -2.393000000    -1.535000000    -3.995000000
O    -1.337000000    -1.920000000    -4.699000000
C    -0.024000000    -1.533000000    -4.124000000
C     0.989000000    -2.675000000    -3.832000000
C     2.325000000    -2.357000000    -3.650000000
H     2.578000000    -1.301000000    -3.694000000
C     0.558000000    -3.928000000    -3.586000000
H    -0.498000000    -4.176000000    -3.529000000
O     0.497000000    -0.377000000    -4.889000000
H    -0.116000000    -1.184000000    -3.085000000
C    -2.835000000    -0.258000000    -4.089000000
C    -2.200000000     0.696000000    -5.113000000
H    -2.929000000     1.406000000    -5.509000000
H    -1.987000000     0.087000000    -5.994000000
C    -1.038000000     1.532000000    -4.572000000
C    -1.270000000     2.807000000    -3.996000000
H    -2.264000000     3.248000000    -4.028000000
C     0.194000000     0.873000000    -4.443000000
C     1.259000000     1.505000000    -3.851000000
H     2.276000000     1.124000000    -3.875000000
C     1.038000000     2.794000000    -3.354000000
O     2.145000000     3.400000000    -2.768000000
C     2.186000000     3.305000000    -1.314000000
C     3.562000000     2.961000000    -0.787000000
C     4.499000000     2.238000000    -1.531000000
H     4.312000000     1.870000000    -2.536000000
C     3.866000000     3.356000000     0.522000000
H     3.196000000     3.983000000     1.105000000
O     1.658000000     4.564000000    -0.798000000
H     1.502000000     2.531000000    -0.936000000
C    -0.195000000     3.461000000    -3.379000000
C    -0.466000000     4.852000000    -2.765000000
H    -1.409000000     5.175000000    -3.212000000
H     0.332000000     5.561000000    -2.999000000
C    -0.718000000     4.738000000    -1.283000000
C     0.346000000     4.654000000    -0.386000000
C     0.094000000     4.485000000     0.894000000
H     0.878000000     4.505000000     1.647000000
C    -1.193000000     4.405000000     1.450000000
O    -1.327000000     4.156000000     2.795000000
C    -1.476000000     2.795000000     3.131000000
H    -1.247000000     2.226000000     2.219000000
C    -0.568000000     2.261000000     4.246000000
C    -1.029000000     1.315000000     5.169000000
H    -1.975000000     0.833000000     4.935000000
C     0.659000000     2.860000000     4.538000000
H     1.027000000     3.674000000     3.918000000
C     1.432000000     2.502000000     5.640000000
O     2.590000000     3.146000000     5.931000000
C     0.959000000     1.537000000     6.529000000
H     1.641000000     1.171000000     7.291000000
C    -0.222000000     0.885000000     6.278000000
O    -0.598000000    -0.221000000     7.047000000
C    -1.259000000    -1.331000000     6.618000000
C    -0.777000000    -2.078000000     5.575000000
H     0.172000000    -1.926000000     5.066000000
C    -2.547000000    -1.688000000     7.115000000
H    -2.983000000    -1.081000000     7.904000000
C    -3.262000000    -2.788000000     6.671000000
H    -4.260000000    -3.061000000     7.003000000
C    -2.672000000    -3.646000000     5.749000000
H    -3.133000000    -4.588000000     5.461000000
C    -1.472000000    -3.184000000     5.103000000
O    -0.939000000    -4.001000000     4.155000000
C    -1.594000000    -4.182000000     2.955000000
C    -1.516000000    -5.433000000     2.341000000
H    -0.898000000    -6.179000000     2.834000000
C    -1.983000000    -5.641000000     1.019000000
O    -1.844000000    -6.852000000     0.493000000
C    -1.485000000    -7.165000000    -0.831000000
C    -0.353000000    -6.511000000    -1.306000000
H     0.292000000    -6.083000000    -0.542000000
C    -2.355000000    -7.844000000    -1.714000000
H    -3.192000000    -8.425000000    -1.334000000
C    -2.129000000    -7.796000000    -3.052000000
H    -2.833000000    -8.266000000    -3.733000000
C    -0.949000000    -7.213000000    -3.510000000
H    -0.660000000    -7.074000000    -4.549000000
C    -0.037000000    -6.647000000    -2.606000000
O     1.211000000    -6.325000000    -3.125000000
C     1.492000000    -4.957000000    -3.314000000
C     2.874000000    -4.586000000    -3.177000000
H     3.632000000    -5.340000000    -2.984000000
C     3.289000000    -3.362000000    -3.395000000
O     4.628000000    -3.041000000    -3.140000000
C     5.111000000    -1.785000000    -3.428000000
C     5.610000000    -1.007000000    -2.437000000
H     5.513000000    -1.348000000    -1.409000000
C     5.322000000    -1.361000000    -4.792000000
H     4.880000000    -1.999000000    -5.553000000
C     6.062000000    -0.209000000    -5.099000000
H     6.130000000     0.259000000    -6.078000000
C     6.464000000     0.571000000    -4.021000000
H     6.982000000     1.501000000    -4.236000000
C     6.206000000     0.237000000    -2.726000000
O     6.646000000     1.081000000    -1.755000000
C     5.718000000     1.858000000    -1.009000000
C     5.993000000     2.289000000     0.262000000
H     6.944000000     2.056000000     0.733000000
C     5.077000000     3.016000000     1.001000000
O     5.445000000     3.442000000     2.178000000
C     4.764000000     4.086000000     3.181000000
C     4.685000000     5.500000000     3.291000000
H     5.024000000     6.205000000     2.536000000
C     3.865000000     6.067000000     4.247000000
H     3.733000000     7.144000000     4.181000000
C     3.196000000     5.288000000     5.185000000
H     2.615000000     5.778000000     5.963000000
C     3.342000000     3.907000000     5.106000000
C     4.073000000     3.323000000     4.081000000
H     4.018000000     2.245000000     3.958000000
C     1.176000000    -1.088000000     2.158000000
H     1.058000000    -1.389000000     3.196000000
C     0.121000000    -0.405000000     1.515000000
H    -0.700000000     0.017000000     2.088000000
C     0.268000000    -0.207000000     0.105000000
H    -0.560000000     0.324000000    -0.438000000
C     1.444000000    -0.661000000    -0.577000000
H     1.485000000    -0.465000000    -1.646000000
C     2.406000000    -1.347000000     0.078000000
H     3.295000000    -1.731000000    -0.414000000
C     2.290000000    -1.611000000     1.444000000
C     3.388000000    -2.380000000     2.188000000
O     4.333000000    -3.033000000     1.745000000
O     3.335000000    -2.295000000     3.405000000
O     1.935000000    -6.785000000     3.497000000
H     2.599000000    -7.335000000     3.913000000
H     2.373000000    -6.420000000     2.728000000
O     7.854000000    -0.974000000     4.680000000
H     7.266000000    -1.296000000     3.997000000
H     7.955000000    -1.715000000     5.278000000
O     2.827000000    -7.953000000    -0.552000000
H     3.190000000    -7.099000000    -0.317000000
H     2.769000000    -8.425000000     0.278000000
O     7.900000000    -5.484000000     2.277000000
H     8.394000000    -6.063000000     1.696000000
H     7.235000000    -5.090000000     1.713000000
O     4.835000000    -4.699000000     3.991000000
H     4.425000000    -4.430000000     4.813000000
H     4.622000000    -3.996000000     3.376000000
O     6.542000000    -7.076000000     3.891000000
H     7.251000000    -6.640000000     3.420000000
H     6.008000000    -6.360000000     4.236000000
O     4.638000000    -0.322000000     4.808000000
H     3.933000000    -0.743000000     4.317000000
H     5.267000000    -1.024000000     4.974000000
O     6.213000000    -6.266000000    -1.842000000
H     6.330000000    -5.719000000    -1.065000000
H     6.655000000    -7.087000000    -1.624000000
O     8.153000000    -3.747000000     5.256000000
H     8.683000000    -4.122000000     5.959000000
H     8.694000000    -3.840000000     4.472000000
O     8.196000000    -0.748000000     0.138000000
H     8.568000000    -0.717000000     1.020000000
H     8.374000000     0.118000000    -0.228000000
O     2.935000000    -3.833000000     7.392000000
H     2.424000000    -3.585000000     6.622000000
H     3.818000000    -3.984000000     7.056000000
O     6.705000000    -2.281000000     2.763000000
H     5.868000000    -2.481000000     2.344000000
H     6.998000000    -3.117000000     3.126000000
O     5.575000000    -3.943000000     6.949000000
H     6.070000000    -4.528000000     7.522000000
H     6.200000000    -3.683000000     6.272000000
O     6.546000000     1.530000000     5.292000000
H     7.109000000     0.773000000     5.131000000
H     5.659000000     1.207000000     5.137000000
O    -0.126000000    -4.688000000     7.290000000
H    -0.491000000    -3.823000000     7.479000000
H     0.615000000    -4.513000000     6.710000000
O     1.849000000    -3.814000000     4.844000000
H     1.578000000    -4.578000000     4.334000000
H     2.425000000    -3.326000000     4.255000000
O     3.614000000    -5.693000000     1.067000000
H     4.220000000    -5.837000000     1.794000000
H     3.517000000    -4.742000000     1.021000000
O     4.232000000     0.887000000     7.692000000
H     4.036000000     0.783000000     6.760000000
H     3.904000000     0.083000000     8.096000000
O     6.225000000    -4.250000000     0.299000000
H     5.570000000    -3.739000000     0.774000000
H     6.496000000    -3.682000000    -0.422000000
