215
-1442.52294
C    -0.371000000    -5.183000000     0.407000000
H    -1.023000000    -5.253000000    -0.460000000
C    -0.772000000    -4.457000000     1.521000000
C     0.077000000    -4.541000000     2.688000000
H    -0.160000000    -3.965000000     3.578000000
C    -1.936000000    -3.468000000     1.542000000
O    -3.105000000    -3.900000000     0.803000000
H    -1.477000000    -2.556000000     1.132000000
O    -2.303000000    -3.124000000     2.872000000
C    -2.609000000    -1.839000000     3.243000000
C    -1.662000000    -1.087000000     3.910000000
H    -0.800000000    -1.632000000     4.287000000
C    -1.791000000     0.251000000     4.150000000
O    -0.889000000     0.926000000     4.872000000
C    -2.998000000     0.891000000     3.713000000
C    -3.138000000     2.349000000     3.860000000
H    -4.204000000     2.570000000     3.941000000
C    -2.345000000     3.045000000     2.784000000
C    -3.030000000     3.420000000     1.616000000
H    -4.063000000     3.137000000     1.427000000
H    -2.843000000     2.636000000     4.872000000
C    -3.912000000     0.231000000     2.930000000
H    -4.863000000     0.657000000     2.620000000
C    -3.730000000    -1.136000000     2.687000000
C    -4.780000000    -1.898000000     1.883000000
H    -5.803000000    -1.554000000     2.046000000
H    -4.886000000    -2.911000000     2.276000000
C    -4.441000000    -1.935000000     0.398000000
C    -4.785000000    -0.881000000    -0.438000000
H    -5.276000000    -0.012000000    -0.009000000
C    -3.642000000    -3.016000000    -0.041000000
C    -3.151000000    -2.921000000    -1.375000000
H    -2.401000000    -3.637000000    -1.702000000
C    -3.621000000    -1.906000000    -2.250000000
O    -3.029000000    -1.847000000    -3.522000000
C    -1.936000000    -0.929000000    -3.719000000
C    -0.874000000    -1.490000000    -4.679000000
C    -0.101000000    -0.654000000    -5.513000000
H    -0.349000000     0.402000000    -5.450000000
C    -0.585000000    -2.865000000    -4.702000000
H    -1.186000000    -3.523000000    -4.079000000
O    -2.473000000     0.271000000    -4.383000000
H    -1.416000000    -0.566000000    -2.821000000
C    -4.448000000    -0.864000000    -1.781000000
C    -4.890000000     0.238000000    -2.690000000
H    -5.871000000     0.592000000    -2.365000000
H    -5.065000000    -0.209000000    -3.670000000
C    -3.865000000     1.418000000    -2.744000000
C    -3.993000000     2.436000000    -1.868000000
H    -4.833000000     2.481000000    -1.179000000
C    -2.692000000     1.361000000    -3.600000000
C    -1.760000000     2.331000000    -3.458000000
H    -0.810000000     2.253000000    -3.981000000
C    -1.832000000     3.375000000    -2.520000000
O    -0.864000000     4.318000000    -2.398000000
C     0.026000000     4.174000000    -1.260000000
C     1.470000000     4.037000000    -1.549000000
C     1.840000000     3.686000000    -2.876000000
H     1.106000000     3.233000000    -3.537000000
C     2.501000000     4.130000000    -0.600000000
H     2.328000000     4.330000000     0.455000000
O    -0.322000000     5.048000000    -0.111000000
H    -0.208000000     3.177000000    -0.858000000
C    -2.959000000     3.400000000    -1.712000000
C    -3.109000000     4.519000000    -0.663000000
H    -4.170000000     4.734000000    -0.520000000
H    -2.705000000     5.456000000    -1.053000000
C    -2.356000000     4.085000000     0.576000000
C    -1.060000000     4.518000000     0.894000000
C    -0.372000000     4.181000000     2.078000000
H     0.703000000     4.345000000     2.056000000
C    -1.043000000     3.427000000     3.052000000
O    -0.288000000     3.044000000     4.065000000
C     0.096000000     1.636000000     4.173000000
H     0.227000000     1.277000000     3.141000000
C     1.495000000     1.456000000     4.781000000
C     1.854000000     0.182000000     5.245000000
H     1.106000000    -0.565000000     5.499000000
C     2.505000000     2.372000000     4.467000000
H     2.252000000     3.371000000     4.121000000
C     3.833000000     2.085000000     4.775000000
O     4.856000000     2.796000000     4.246000000
C     4.204000000     0.797000000     5.241000000
H     5.206000000     0.430000000     5.450000000
C     3.195000000    -0.139000000     5.440000000
O     3.520000000    -1.358000000     5.892000000
C     2.762000000    -2.522000000     5.855000000
C     2.811000000    -3.410000000     4.798000000
H     3.329000000    -3.258000000     3.855000000
C     2.020000000    -2.921000000     7.023000000
H     1.995000000    -2.292000000     7.909000000
C     1.243000000    -4.121000000     7.026000000
H     0.740000000    -4.443000000     7.934000000
C     1.165000000    -4.881000000     5.882000000
H     0.540000000    -5.768000000     5.946000000
C     2.012000000    -4.547000000     4.789000000
O     2.146000000    -5.349000000     3.687000000
C     1.241000000    -5.318000000     2.664000000
C     1.666000000    -5.905000000     1.500000000
H     2.613000000    -6.432000000     1.581000000
C     0.906000000    -5.868000000     0.329000000
O     1.370000000    -6.456000000    -0.828000000
C     0.623000000    -6.451000000    -2.021000000
C     0.835000000    -5.498000000    -3.028000000
H     1.559000000    -4.694000000    -2.920000000
C    -0.377000000    -7.454000000    -2.267000000
H    -0.603000000    -8.035000000    -1.376000000
C    -1.038000000    -7.494000000    -3.546000000
H    -1.865000000    -8.140000000    -3.829000000
C    -0.714000000    -6.591000000    -4.529000000
H    -1.073000000    -6.734000000    -5.545000000
C     0.164000000    -5.535000000    -4.253000000
O     0.581000000    -4.800000000    -5.355000000
C     0.409000000    -3.421000000    -5.423000000
C     1.142000000    -2.567000000    -6.288000000
H     2.009000000    -3.000000000    -6.781000000
C     0.970000000    -1.208000000    -6.314000000
O     1.707000000    -0.379000000    -7.231000000
C     1.980000000     0.957000000    -6.969000000
C     2.745000000     1.446000000    -5.870000000
H     3.298000000     0.654000000    -5.371000000
C     1.383000000     1.920000000    -7.793000000
H     0.844000000     1.575000000    -8.672000000
C     1.465000000     3.246000000    -7.477000000
H     1.034000000     4.006000000    -8.124000000
C     2.093000000     3.666000000    -6.316000000
H     2.079000000     4.729000000    -6.087000000
C     2.766000000     2.803000000    -5.512000000
O     3.621000000     3.247000000    -4.512000000
C     3.238000000     3.606000000    -3.239000000
C     4.130000000     4.007000000    -2.272000000
H     5.193000000     3.942000000    -2.489000000
C     3.811000000     4.336000000    -1.005000000
O     4.777000000     4.824000000    -0.146000000
C     4.722000000     4.919000000     1.232000000
C     4.488000000     6.225000000     1.788000000
H     4.262000000     7.095000000     1.177000000
C     4.617000000     6.361000000     3.141000000
H     4.559000000     7.336000000     3.618000000
C     4.684000000     5.178000000     3.952000000
H     4.633000000     5.194000000     5.038000000
C     4.772000000     3.922000000     3.396000000
C     4.828000000     3.778000000     2.033000000
H     4.988000000     2.779000000     1.635000000
C     2.244000000    -1.766000000    -2.073000000
H     2.508000000    -1.923000000    -3.116000000
C     1.286000000    -0.806000000    -1.725000000
H     0.984000000    -0.075000000    -2.471000000
C     0.633000000    -0.778000000    -0.490000000
H    -0.227000000    -0.075000000    -0.367000000
C     1.136000000    -1.647000000     0.495000000
H     0.655000000    -1.654000000     1.469000000
C     2.218000000    -2.513000000     0.217000000
H     2.576000000    -3.204000000     0.976000000
C     2.745000000    -2.594000000    -1.141000000
C     3.866000000    -3.543000000    -1.525000000
O     4.311000000    -4.330000000    -0.672000000
O     4.261000000    -3.629000000    -2.679000000
O     5.608000000    -4.767000000     3.965000000
H     4.801000000    -5.280000000     3.913000000
H     5.751000000    -4.454000000     3.072000000
O     5.016000000    -3.059000000    -5.209000000
H     4.931000000    -3.875000000    -5.702000000
H     4.776000000    -3.295000000    -4.312000000
O     4.422000000    -7.767000000     2.040000000
H     5.121000000    -8.392000000     1.850000000
H     4.091000000    -7.508000000     1.180000000
O     5.901000000     0.461000000    -0.857000000
H     5.744000000    -0.094000000    -1.621000000
H     5.042000000     0.546000000    -0.443000000
O     5.437000000    -9.618000000    -1.581000000
H     4.884000000    -8.864000000    -1.377000000
H     5.129000000   -10.307000000    -0.992000000
O     6.971000000    -3.382000000    -1.844000000
H     6.206000000    -3.958000000    -1.859000000
H     6.881000000    -2.887000000    -1.030000000
O     4.448000000    -7.015000000    -0.838000000
H     4.382000000    -6.925000000    -1.788000000
H     4.626000000    -6.128000000    -0.525000000
O     3.812000000     0.185000000     0.836000000
H     4.305000000     0.224000000     1.655000000
H     3.147000000    -0.486000000     0.988000000
O     7.358000000    -7.214000000     1.590000000
H     8.242000000    -6.955000000     1.330000000
H     6.865000000    -6.394000000     1.610000000
O     5.694000000    -7.942000000    -4.645000000
H     5.230000000    -8.695000000    -4.279000000
H     5.080000000    -7.214000000    -4.551000000
O     8.999000000    -3.608000000    -3.551000000
H     8.286000000    -3.682000000    -2.916000000
H     8.563000000    -3.398000000    -4.377000000
O     7.613000000    -2.755000000    -6.023000000
H     7.586000000    -1.848000000    -6.325000000
H     6.729000000    -2.926000000    -5.698000000
O     4.112000000    -6.193000000    -3.541000000
H     3.256000000    -6.131000000    -3.965000000
H     4.266000000    -5.318000000    -3.184000000
O     6.911000000    -1.883000000     0.290000000
H     7.216000000    -1.736000000     1.185000000
H     6.512000000    -1.052000000     0.033000000
O     1.331000000    -9.247000000     0.357000000
H     1.077000000    -8.956000000     1.233000000
H     1.576000000    -8.442000000    -0.100000000
O     7.511000000     0.917000000    -4.474000000
H     7.907000000     1.356000000    -3.722000000
H     6.944000000     0.248000000    -4.090000000
O     6.059000000    -1.126000000    -3.039000000
H     6.489000000    -1.784000000    -2.494000000
H     5.321000000    -1.589000000    -3.435000000
O     5.047000000    -5.366000000    -6.553000000
H     5.585000000    -5.876000000    -7.159000000
H     4.298000000    -5.931000000    -6.365000000
O     5.827000000    -4.096000000     1.470000000
H     5.224000000    -4.108000000     0.727000000
H     6.401000000    -3.349000000     1.301000000
