215
-1444.91098
C    -0.298000000    -5.072000000     1.057000000
H    -0.811000000    -5.134000000     0.101000000
C    -0.915000000    -4.281000000     2.021000000
C    -0.282000000    -4.128000000     3.288000000
H    -0.800000000    -3.470000000     3.982000000
C    -2.086000000    -3.233000000     1.725000000
O    -3.011000000    -3.909000000     0.838000000
H    -1.738000000    -2.276000000     1.309000000
O    -2.792000000    -2.999000000     2.987000000
C    -3.127000000    -1.678000000     3.041000000
C    -2.165000000    -0.898000000     3.832000000
H    -1.375000000    -1.435000000     4.350000000
C    -2.246000000     0.502000000     3.794000000
O    -1.280000000     1.227000000     4.398000000
C    -3.290000000     1.088000000     3.109000000
C    -3.538000000     2.597000000     3.166000000
H    -4.589000000     2.839000000     2.994000000
C    -2.772000000     3.342000000     2.093000000
C    -3.305000000     3.626000000     0.838000000
H    -4.305000000     3.279000000     0.591000000
H    -3.301000000     3.014000000     4.147000000
C    -4.211000000     0.339000000     2.391000000
H    -5.086000000     0.760000000     1.902000000
C    -4.102000000    -1.046000000     2.315000000
C    -5.117000000    -1.783000000     1.459000000
H    -6.106000000    -1.322000000     1.505000000
H    -5.240000000    -2.781000000     1.885000000
C    -4.507000000    -2.041000000     0.086000000
C    -4.974000000    -1.302000000    -1.062000000
H    -5.697000000    -0.505000000    -0.907000000
C    -3.581000000    -3.083000000    -0.169000000
C    -3.056000000    -3.249000000    -1.498000000
H    -2.408000000    -4.080000000    -1.764000000
C    -3.304000000    -2.316000000    -2.508000000
O    -2.570000000    -2.460000000    -3.637000000
C    -1.437000000    -1.494000000    -3.750000000
C    -0.126000000    -2.153000000    -4.265000000
C     0.729000000    -1.474000000    -5.137000000
H     0.557000000    -0.442000000    -5.429000000
C     0.042000000    -3.478000000    -4.006000000
H    -0.630000000    -4.030000000    -3.353000000
O    -1.826000000    -0.364000000    -4.589000000
H    -1.208000000    -1.131000000    -2.737000000
C    -4.253000000    -1.337000000    -2.247000000
C    -4.494000000    -0.251000000    -3.289000000
H    -5.518000000     0.096000000    -3.137000000
H    -4.541000000    -0.575000000    -4.331000000
C    -3.481000000     0.832000000    -3.131000000
C    -3.761000000     2.035000000    -2.413000000
H    -4.731000000     2.229000000    -1.964000000
C    -2.313000000     0.730000000    -3.877000000
C    -1.384000000     1.692000000    -3.720000000
H    -0.459000000     1.567000000    -4.276000000
C    -1.577000000     2.911000000    -3.107000000
O    -0.488000000     3.776000000    -2.955000000
C     0.274000000     3.772000000    -1.672000000
C     1.752000000     3.936000000    -1.946000000
C     2.313000000     3.217000000    -2.935000000
H     1.710000000     2.568000000    -3.564000000
C     2.576000000     4.678000000    -1.102000000
H     2.144000000     5.206000000    -0.256000000
O    -0.214000000     4.770000000    -0.809000000
H     0.125000000     2.824000000    -1.135000000
C    -2.788000000     3.062000000    -2.359000000
C    -3.019000000     4.287000000    -1.579000000
H    -4.096000000     4.464000000    -1.558000000
H    -2.487000000     5.072000000    -2.121000000
C    -2.491000000     4.142000000    -0.166000000
C    -1.178000000     4.441000000     0.094000000
C    -0.634000000     4.298000000     1.355000000
H     0.422000000     4.485000000     1.534000000
C    -1.489000000     3.774000000     2.338000000
O    -0.967000000     3.385000000     3.551000000
C    -0.484000000     2.027000000     3.540000000
H    -0.448000000     1.563000000     2.543000000
C     0.964000000     1.961000000     4.163000000
C     1.350000000     0.829000000     4.992000000
H     0.580000000     0.070000000     5.103000000
C     1.867000000     2.988000000     3.969000000
H     1.673000000     3.927000000     3.457000000
C     3.149000000     2.895000000     4.453000000
O     4.191000000     3.744000000     4.173000000
C     3.470000000     1.763000000     5.186000000
H     4.493000000     1.642000000     5.532000000
C     2.563000000     0.723000000     5.495000000
O     3.027000000    -0.519000000     6.073000000
C     2.220000000    -1.538000000     6.327000000
C     2.361000000    -2.684000000     5.470000000
H     3.195000000    -2.741000000     4.775000000
C     1.085000000    -1.472000000     7.180000000
H     0.958000000    -0.553000000     7.746000000
C     0.126000000    -2.512000000     7.255000000
H    -0.729000000    -2.499000000     7.926000000
C     0.343000000    -3.605000000     6.478000000
H    -0.347000000    -4.444000000     6.464000000
C     1.396000000    -3.724000000     5.592000000
O     1.582000000    -4.820000000     4.758000000
C     0.904000000    -4.896000000     3.559000000
C     1.479000000    -5.679000000     2.566000000
H     2.387000000    -6.247000000     2.749000000
C     0.937000000    -5.714000000     1.298000000
O     1.618000000    -6.381000000     0.288000000
C     1.043000000    -6.651000000    -0.933000000
C     1.458000000    -5.922000000    -2.077000000
H     2.194000000    -5.128000000    -1.980000000
C     0.107000000    -7.634000000    -1.067000000
H    -0.334000000    -8.168000000    -0.229000000
C    -0.481000000    -7.962000000    -2.303000000
H    -1.201000000    -8.762000000    -2.457000000
C     0.021000000    -7.264000000    -3.439000000
H    -0.429000000    -7.516000000    -4.396000000
C     0.967000000    -6.277000000    -3.340000000
O     1.363000000    -5.549000000    -4.384000000
C     1.119000000    -4.142000000    -4.524000000
C     2.014000000    -3.448000000    -5.318000000
H     2.964000000    -3.950000000    -5.479000000
C     1.860000000    -2.115000000    -5.632000000
O     2.913000000    -1.476000000    -6.212000000
C     2.985000000    -0.137000000    -6.306000000
C     3.488000000     0.643000000    -5.201000000
H     3.933000000     0.119000000    -4.358000000
C     2.542000000     0.505000000    -7.439000000
H     2.225000000    -0.076000000    -8.302000000
C     2.659000000     1.927000000    -7.535000000
H     2.451000000     2.461000000    -8.459000000
C     3.235000000     2.667000000    -6.492000000
H     3.340000000     3.720000000    -6.740000000
C     3.658000000     1.992000000    -5.293000000
O     4.332000000     2.741000000    -4.269000000
C     3.721000000     3.304000000    -3.192000000
C     4.520000000     4.057000000    -2.337000000
H     5.604000000     3.981000000    -2.364000000
C     3.933000000     4.691000000    -1.263000000
O     4.726000000     5.377000000    -0.281000000
C     4.379000000     5.674000000     1.079000000
C     3.735000000     6.840000000     1.512000000
H     3.558000000     7.663000000     0.824000000
C     3.308000000     7.013000000     2.858000000
H     2.855000000     7.932000000     3.222000000
C     3.588000000     5.975000000     3.760000000
H     3.174000000     6.018000000     4.764000000
C     4.076000000     4.721000000     3.275000000
C     4.500000000     4.635000000     1.938000000
H     4.960000000     3.698000000     1.635000000
C     2.072000000    -2.337000000    -0.744000000
H     2.723000000    -2.764000000    -1.503000000
C     1.133000000    -1.394000000    -1.101000000
H     0.954000000    -1.172000000    -2.151000000
C     0.428000000    -0.757000000    -0.112000000
H    -0.444000000    -0.171000000    -0.414000000
C     0.773000000    -0.933000000     1.224000000
H     0.191000000    -0.442000000     2.000000000
C     1.723000000    -1.859000000     1.593000000
H     1.981000000    -2.007000000     2.639000000
C     2.369000000    -2.580000000     0.570000000
C     3.538000000    -3.469000000     0.916000000
O     3.893000000    -3.484000000     2.095000000
O     4.158000000    -3.933000000     0.011000000
O     8.125000000    -5.793000000    -1.808000000
H     8.188000000    -6.168000000    -2.687000000
H     7.784000000    -4.910000000    -1.949000000
O     5.632000000    -2.916000000     5.603000000
H     6.282000000    -2.905000000     4.900000000
H     5.617000000    -3.825000000     5.901000000
O     6.953000000    -5.961000000     5.205000000
H     6.269000000    -5.752000000     4.570000000
H     6.585000000    -5.698000000     6.049000000
O     8.858000000    -1.809000000     0.647000000
H     7.920000000    -1.880000000     0.826000000
H     8.979000000    -0.905000000     0.356000000
O     5.491000000    -6.185000000     1.205000000
H     5.293000000    -6.027000000     2.128000000
H     5.070000000    -5.460000000     0.743000000
O     5.055000000    -1.799000000    -1.951000000
H     5.294000000    -2.245000000    -1.139000000
H     5.199000000    -0.871000000    -1.766000000
O     5.763000000    -8.031000000    -1.203000000
H     5.327000000    -7.855000000    -0.369000000
H     5.973000000    -7.165000000    -1.552000000
O     5.287000000     0.950000000    -1.587000000
H     4.418000000     1.340000000    -1.503000000
H     5.683000000     1.057000000    -0.722000000
O     5.928000000     1.184000000     1.011000000
H     6.517000000     1.901000000     1.248000000
H     5.741000000     0.743000000     1.840000000
O     4.030000000    -7.091000000    -3.897000000
H     4.716000000    -6.620000000    -3.423000000
H     3.227000000    -6.610000000    -3.695000000
O     4.633000000    -5.711000000     6.684000000
H     4.259000000    -6.502000000     6.296000000
H     4.866000000    -5.969000000     7.576000000
O     6.161000000    -1.643000000    -4.784000000
H     6.892000000    -2.183000000    -4.483000000
H     5.640000000    -1.485000000    -3.996000000
O     6.554000000    -3.199000000     0.784000000
H     5.666000000    -3.535000000     0.666000000
H     7.111000000    -3.977000000     0.758000000
O     9.272000000    -5.757000000     0.835000000
H     9.319000000    -5.636000000    -0.114000000
H     8.691000000    -6.508000000     0.952000000
O     4.669000000    -5.390000000     3.835000000
H     4.443000000    -5.168000000     4.738000000
H     4.136000000    -4.799000000     3.302000000
O     5.347000000    -1.207000000     2.708000000
H     4.785000000    -0.722000000     3.312000000
H     4.897000000    -2.042000000     2.580000000
O     7.705000000    -7.812000000     1.223000000
H     7.562000000    -8.581000000     0.672000000
H     6.876000000    -7.335000000     1.189000000
O     8.025000000    -2.397000000     4.101000000
H     8.187000000    -1.469000000     3.931000000
H     8.161000000    -2.822000000     3.254000000
O     4.966000000    -4.938000000    -2.421000000
H     4.702000000    -4.607000000    -1.562000000
H     5.146000000    -4.151000000    -2.936000000
