215
-1441.76781
C     0.100000000    -5.660000000    -0.057000000
H    -0.564000000    -5.468000000    -0.896000000
C    -0.056000000    -4.920000000     1.131000000
C     0.817000000    -5.158000000     2.186000000
H     0.709000000    -4.627000000     3.128000000
C    -1.156000000    -3.946000000     1.232000000
O    -2.242000000    -4.485000000     0.439000000
H    -0.826000000    -2.952000000     0.895000000
O    -1.731000000    -3.954000000     2.572000000
C    -2.254000000    -2.804000000     3.067000000
C    -1.360000000    -2.018000000     3.844000000
H    -0.406000000    -2.458000000     4.121000000
C    -1.736000000    -0.749000000     4.368000000
O    -0.810000000     0.100000000     4.979000000
C    -2.894000000    -0.152000000     3.889000000
C    -3.341000000     1.223000000     4.298000000
H    -4.428000000     1.222000000     4.394000000
C    -2.799000000     2.239000000     3.317000000
C    -3.579000000     2.529000000     2.172000000
H    -4.574000000     2.097000000     2.110000000
H    -3.001000000     1.463000000     5.308000000
C    -3.736000000    -0.882000000     3.050000000
H    -4.678000000    -0.437000000     2.740000000
C    -3.462000000    -2.217000000     2.645000000
C    -4.351000000    -3.034000000     1.648000000
H    -5.403000000    -2.756000000     1.750000000
H    -4.237000000    -4.081000000     1.935000000
C    -3.939000000    -2.807000000     0.180000000
C    -4.582000000    -1.804000000    -0.511000000
H    -5.293000000    -1.132000000    -0.038000000
C    -2.870000000    -3.510000000    -0.346000000
C    -2.424000000    -3.291000000    -1.663000000
H    -1.510000000    -3.824000000    -1.913000000
C    -3.021000000    -2.259000000    -2.379000000
O    -2.473000000    -1.917000000    -3.567000000
C    -1.714000000    -0.671000000    -3.443000000
C    -0.360000000    -0.805000000    -4.114000000
C     0.255000000     0.251000000    -4.780000000
H    -0.258000000     1.209000000    -4.805000000
C     0.323000000    -2.027000000    -3.961000000
H    -0.231000000    -2.853000000    -3.523000000
O    -2.560000000     0.330000000    -3.973000000
H    -1.490000000    -0.330000000    -2.421000000
C    -4.141000000    -1.561000000    -1.802000000
C    -4.861000000    -0.374000000    -2.501000000
H    -5.847000000    -0.392000000    -2.032000000
H    -4.854000000    -0.566000000    -3.576000000
C    -4.230000000     1.035000000    -2.290000000
C    -4.572000000     1.942000000    -1.271000000
H    -5.402000000     1.677000000    -0.622000000
C    -3.124000000     1.279000000    -3.111000000
C    -2.329000000     2.444000000    -2.938000000
H    -1.525000000     2.684000000    -3.630000000
C    -2.607000000     3.310000000    -1.852000000
O    -1.794000000     4.360000000    -1.645000000
C    -0.741000000     4.384000000    -0.646000000
C     0.557000000     4.989000000    -1.164000000
C     0.745000000     5.244000000    -2.529000000
H    -0.113000000     4.977000000    -3.140000000
C     1.637000000     5.078000000    -0.272000000
H     1.510000000     4.871000000     0.788000000
O    -1.277000000     4.956000000     0.561000000
H    -0.426000000     3.361000000    -0.395000000
C    -3.705000000     3.019000000    -0.999000000
C    -3.998000000     4.024000000     0.104000000
H    -5.064000000     3.930000000     0.323000000
H    -3.886000000     5.057000000    -0.232000000
C    -3.162000000     3.575000000     1.242000000
C    -1.860000000     4.148000000     1.494000000
C    -1.175000000     3.805000000     2.661000000
H    -0.249000000     4.347000000     2.834000000
C    -1.532000000     2.769000000     3.479000000
O    -0.669000000     2.362000000     4.465000000
C    -0.180000000     1.059000000     4.102000000
H    -0.376000000     0.786000000     3.054000000
C     1.368000000     0.912000000     4.253000000
C     1.979000000    -0.355000000     4.325000000
H     1.303000000    -1.200000000     4.429000000
C     2.182000000     2.075000000     4.227000000
H     1.736000000     3.066000000     4.193000000
C     3.542000000     1.873000000     4.076000000
O     4.407000000     2.931000000     3.870000000
C     4.154000000     0.564000000     4.116000000
H     5.239000000     0.498000000     4.108000000
C     3.341000000    -0.547000000     4.276000000
O     3.962000000    -1.826000000     4.237000000
C     3.345000000    -3.004000000     4.522000000
C     3.476000000    -4.142000000     3.681000000
H     4.049000000    -3.943000000     2.779000000
C     2.709000000    -3.166000000     5.783000000
H     2.675000000    -2.309000000     6.451000000
C     2.024000000    -4.394000000     6.046000000
H     1.395000000    -4.412000000     6.932000000
C     2.123000000    -5.481000000     5.198000000
H     1.643000000    -6.399000000     5.530000000
C     2.797000000    -5.316000000     4.014000000
O     2.716000000    -6.256000000     3.068000000
C     1.857000000    -6.093000000     2.027000000
C     2.066000000    -6.912000000     0.899000000
H     2.775000000    -7.735000000     0.852000000
C     1.206000000    -6.612000000    -0.163000000
O     1.388000000    -7.236000000    -1.391000000
C     1.114000000    -6.551000000    -2.577000000
C     1.699000000    -5.293000000    -2.721000000
H     2.266000000    -4.844000000    -1.910000000
C     0.605000000    -7.156000000    -3.718000000
H     0.109000000    -8.115000000    -3.593000000
C     0.532000000    -6.544000000    -4.911000000
H     0.154000000    -7.133000000    -5.742000000
C     1.077000000    -5.300000000    -5.068000000
H     1.074000000    -4.869000000    -6.066000000
C     1.645000000    -4.641000000    -3.995000000
O     2.327000000    -3.399000000    -4.188000000
C     1.632000000    -2.194000000    -4.461000000
C     2.152000000    -1.134000000    -5.218000000
H     3.102000000    -1.248000000    -5.733000000
C     1.541000000     0.098000000    -5.297000000
O     2.150000000     1.093000000    -6.022000000
C     1.714000000     2.373000000    -6.175000000
C     2.121000000     3.266000000    -5.190000000
H     2.798000000     2.978000000    -4.389000000
C     1.030000000     2.852000000    -7.302000000
H     0.646000000     2.193000000    -8.077000000
C     0.611000000     4.217000000    -7.399000000
H     0.143000000     4.677000000    -8.266000000
C     1.040000000     5.094000000    -6.399000000
H     0.889000000     6.169000000    -6.442000000
C     1.862000000     4.646000000    -5.339000000
O     2.287000000     5.534000000    -4.427000000
C     2.052000000     5.536000000    -3.027000000
C     3.070000000     5.644000000    -2.142000000
H     4.120000000     5.750000000    -2.400000000
C     2.886000000     5.352000000    -0.789000000
O     3.985000000     5.501000000    -0.026000000
C     4.038000000     5.518000000     1.370000000
C     3.549000000     6.570000000     2.155000000
H     3.280000000     7.543000000     1.752000000
C     3.427000000     6.467000000     3.573000000
H     3.080000000     7.283000000     4.202000000
C     3.650000000     5.260000000     4.145000000
H     3.492000000     5.120000000     5.212000000
C     4.156000000     4.180000000     3.385000000
C     4.280000000     4.311000000     2.003000000
H     4.550000000     3.404000000     1.469000000
C     4.323000000    -0.720000000    -2.521000000
H     4.796000000    -0.329000000    -3.418000000
C     3.483000000     0.071000000    -1.757000000
H     3.224000000     1.073000000    -2.092000000
C     2.758000000    -0.371000000    -0.671000000
H     2.004000000     0.275000000    -0.080000000
C     3.074000000    -1.621000000    -0.168000000
H     2.592000000    -1.940000000     0.753000000
C     3.932000000    -2.477000000    -0.851000000
H     4.166000000    -3.448000000    -0.420000000
C     4.546000000    -1.999000000    -1.998000000
C     5.561000000    -2.929000000    -2.714000000
O     5.745000000    -4.071000000    -2.376000000
O     6.038000000    -2.496000000    -3.759000000
O     5.510000000    -5.869000000     1.682000000
H     4.781000000    -5.946000000     2.297000000
H     5.528000000    -6.710000000     1.226000000
O     3.192000000    -6.341000000    -7.072000000
H     3.403000000    -5.507000000    -6.652000000
H     3.446000000    -7.003000000    -6.430000000
O     4.774000000    -4.099000000    -5.608000000
H     5.303000000    -3.602000000    -4.984000000
H     3.944000000    -4.247000000    -5.154000000
O     7.485000000    -4.909000000    -0.626000000
H     6.832000000    -4.976000000     0.070000000
H     6.978000000    -4.704000000    -1.412000000
O     8.909000000    -5.477000000    -5.291000000
H     8.233000000    -5.733000000    -4.664000000
H     9.284000000    -6.305000000    -5.591000000
O    10.744000000    -2.170000000    -4.277000000
H    11.320000000    -2.545000000    -4.944000000
H     9.877000000    -2.171000000    -4.682000000
O     8.037000000    -0.411000000    -2.979000000
H     8.635000000    -0.774000000    -2.327000000
H     7.727000000    -1.172000000    -3.470000000
O     9.408000000    -2.166000000    -1.180000000
H     8.626000000    -2.693000000    -1.342000000
H     9.353000000    -1.934000000    -0.253000000
O    10.391000000    -4.653000000    -3.123000000
H    10.089000000    -4.945000000    -3.984000000
H    10.617000000    -3.732000000    -3.249000000
O     6.173000000    -6.532000000    -3.477000000
H     5.992000000    -5.642000000    -3.176000000
H     5.309000000    -6.911000000    -3.639000000
O     5.761000000    -0.874000000    -5.914000000
H     5.774000000    -0.074000000    -5.389000000
H     6.024000000    -1.565000000    -5.305000000
O     6.528000000     1.883000000    -3.472000000
H     6.157000000     2.203000000    -2.649000000
H     7.196000000     1.252000000    -3.204000000
O     9.153000000    -1.319000000    -7.327000000
H     8.685000000    -1.836000000    -6.672000000
H     8.671000000    -1.468000000    -8.140000000
O     6.885000000    -8.579000000    -1.683000000
H     6.043000000    -8.933000000    -1.396000000
H     6.670000000    -7.727000000    -2.062000000
O     9.832000000    -6.052000000    -0.796000000
H    10.099000000    -5.583000000    -1.587000000
H     9.009000000    -5.638000000    -0.539000000
O     8.155000000    -2.906000000    -5.298000000
H     8.390000000    -3.808000000    -5.518000000
H     7.452000000    -2.992000000    -4.655000000
O     6.247000000    -4.291000000    -7.938000000
H     5.662000000    -4.099000000    -7.206000000
H     6.141000000    -5.231000000    -8.088000000
O     3.898000000    -1.172000000    -8.179000000
H     4.539000000    -1.238000000    -7.471000000
H     4.043000000    -0.302000000    -8.553000000
O     5.670000000    -0.263000000     0.464000000
H     5.070000000    -0.992000000     0.308000000
H     5.701000000     0.205000000    -0.370000000
