215
-1450.35046
C     0.101000000    -5.477000000    -0.591000000
H    -0.512000000    -5.347000000    -1.479000000
C    -0.205000000    -4.958000000     0.675000000
C     0.778000000    -5.044000000     1.641000000
H     0.633000000    -4.680000000     2.655000000
C    -1.448000000    -4.066000000     0.870000000
O    -2.415000000    -4.396000000    -0.141000000
H    -1.188000000    -3.012000000     0.694000000
O    -1.894000000    -4.138000000     2.207000000
C    -2.322000000    -2.990000000     2.833000000
C    -1.399000000    -2.302000000     3.673000000
H    -0.377000000    -2.642000000     3.816000000
C    -1.771000000    -1.079000000     4.167000000
O    -0.710000000    -0.381000000     4.775000000
C    -2.983000000    -0.438000000     3.792000000
C    -3.233000000     1.010000000     4.218000000
H    -4.318000000     1.061000000     4.108000000
C    -2.721000000     2.139000000     3.278000000
C    -3.419000000     2.697000000     2.243000000
H    -4.440000000     2.349000000     2.105000000
H    -3.030000000     1.119000000     5.285000000
C    -3.830000000    -1.000000000     2.886000000
H    -4.800000000    -0.659000000     2.533000000
C    -3.458000000    -2.288000000     2.464000000
C    -4.461000000    -2.949000000     1.482000000
H    -5.498000000    -2.652000000     1.651000000
H    -4.543000000    -4.036000000     1.548000000
C    -4.173000000    -2.656000000    -0.004000000
C    -4.869000000    -1.594000000    -0.697000000
H    -5.621000000    -1.057000000    -0.124000000
C    -3.141000000    -3.388000000    -0.685000000
C    -2.859000000    -3.063000000    -1.994000000
H    -2.062000000    -3.581000000    -2.522000000
C    -3.432000000    -1.941000000    -2.547000000
O    -2.940000000    -1.623000000    -3.761000000
C    -1.919000000    -0.537000000    -3.661000000
C    -0.685000000    -0.876000000    -4.526000000
C     0.137000000     0.097000000    -5.046000000
H    -0.074000000     1.145000000    -4.847000000
C    -0.416000000    -2.231000000    -4.799000000
H    -1.131000000    -3.012000000    -4.555000000
O    -2.482000000     0.713000000    -4.100000000
H    -1.608000000    -0.448000000    -2.610000000
C    -4.450000000    -1.191000000    -1.927000000
C    -4.972000000     0.062000000    -2.521000000
H    -5.926000000     0.367000000    -2.088000000
H    -5.294000000    -0.017000000    -3.561000000
C    -4.102000000     1.338000000    -2.374000000
C    -4.377000000     2.264000000    -1.338000000
H    -5.286000000     2.117000000    -0.761000000
C    -2.906000000     1.529000000    -3.124000000
C    -2.030000000     2.584000000    -2.771000000
H    -1.114000000     2.786000000    -3.320000000
C    -2.288000000     3.394000000    -1.726000000
O    -1.322000000     4.360000000    -1.478000000
C    -0.514000000     4.231000000    -0.348000000
C     0.885000000     4.596000000    -0.656000000
C     1.541000000     4.234000000    -1.832000000
H     1.048000000     3.629000000    -2.590000000
C     1.675000000     5.200000000     0.315000000
H     1.244000000     5.410000000     1.291000000
O    -1.011000000     4.989000000     0.745000000
H    -0.594000000     3.150000000    -0.159000000
C    -3.499000000     3.276000000    -0.985000000
C    -3.790000000     4.131000000     0.275000000
H    -4.854000000     4.115000000     0.519000000
H    -3.538000000     5.160000000     0.011000000
C    -2.910000000     3.686000000     1.420000000
C    -1.625000000     4.207000000     1.701000000
C    -0.883000000     3.663000000     2.737000000
H     0.182000000     3.851000000     2.848000000
C    -1.448000000     2.687000000     3.580000000
O    -0.772000000     1.929000000     4.443000000
C    -0.207000000     0.724000000     3.949000000
H    -0.450000000     0.585000000     2.885000000
C     1.356000000     0.788000000     4.129000000
C     2.060000000    -0.364000000     3.888000000
H     1.548000000    -1.307000000     3.713000000
C     1.993000000     1.980000000     4.297000000
H     1.479000000     2.897000000     4.575000000
C     3.370000000     1.965000000     4.321000000
O     4.123000000     3.054000000     4.641000000
C     4.116000000     0.854000000     4.091000000
H     5.188000000     0.902000000     4.261000000
C     3.456000000    -0.324000000     3.844000000
O     4.201000000    -1.485000000     3.921000000
C     3.597000000    -2.728000000     4.261000000
C     3.671000000    -3.746000000     3.300000000
H     4.119000000    -3.541000000     2.331000000
C     3.093000000    -2.981000000     5.508000000
H     3.276000000    -2.243000000     6.285000000
C     2.474000000    -4.230000000     5.787000000
H     2.088000000    -4.348000000     6.796000000
C     2.392000000    -5.203000000     4.847000000
H     1.950000000    -6.178000000     5.036000000
C     3.018000000    -4.954000000     3.599000000
O     2.860000000    -5.868000000     2.583000000
C     1.983000000    -5.734000000     1.540000000
C     2.248000000    -6.193000000     0.234000000
H     3.122000000    -6.794000000    -0.007000000
C     1.326000000    -6.143000000    -0.788000000
O     1.683000000    -6.530000000    -2.076000000
C     1.033000000    -6.270000000    -3.247000000
C     1.304000000    -5.131000000    -3.993000000
H     2.165000000    -4.504000000    -3.779000000
C     0.114000000    -7.185000000    -3.696000000
H    -0.128000000    -8.019000000    -3.043000000
C    -0.462000000    -7.054000000    -4.935000000
H    -1.099000000    -7.846000000    -5.320000000
C    -0.219000000    -5.897000000    -5.648000000
H    -0.722000000    -5.807000000    -6.608000000
C     0.637000000    -4.879000000    -5.153000000
O     0.996000000    -3.823000000    -5.924000000
C     0.700000000    -2.527000000    -5.528000000
C     1.519000000    -1.566000000    -6.011000000
H     2.347000000    -1.860000000    -6.653000000
C     1.320000000    -0.235000000    -5.735000000
O     2.249000000     0.630000000    -6.198000000
C     2.099000000     2.044000000    -5.767000000
C     2.862000000     2.595000000    -4.707000000
H     3.603000000     2.022000000    -4.155000000
C     1.140000000     2.809000000    -6.419000000
H     0.487000000     2.256000000    -7.089000000
C     0.860000000     4.166000000    -6.069000000
H     0.065000000     4.697000000    -6.584000000
C     1.795000000     4.754000000    -5.231000000
H     1.829000000     5.838000000    -5.166000000
C     2.703000000     3.973000000    -4.474000000
O     3.366000000     4.547000000    -3.385000000
C     2.779000000     4.750000000    -2.156000000
C     3.549000000     5.408000000    -1.156000000
H     4.579000000     5.753000000    -1.213000000
C     2.991000000     5.623000000     0.069000000
O     3.867000000     6.143000000     1.019000000
C     3.731000000     5.896000000     2.353000000
C     3.596000000     6.982000000     3.289000000
H     3.690000000     7.973000000     2.851000000
C     3.818000000     6.698000000     4.655000000
H     3.905000000     7.536000000     5.341000000
C     3.917000000     5.394000000     5.088000000
H     4.042000000     5.032000000     6.105000000
C     3.933000000     4.338000000     4.204000000
C     3.782000000     4.578000000     2.860000000
H     3.857000000     3.731000000     2.183000000
C     1.856000000    -0.768000000    -1.979000000
H     2.261000000    -0.396000000    -2.917000000
C     0.872000000     0.105000000    -1.308000000
H     0.459000000     0.964000000    -1.831000000
C     0.393000000    -0.298000000    -0.055000000
H    -0.377000000     0.243000000     0.380000000
C     0.944000000    -1.415000000     0.564000000
H     0.526000000    -1.743000000     1.512000000
C     1.910000000    -2.228000000    -0.068000000
H     2.308000000    -3.121000000     0.408000000
C     2.428000000    -1.893000000    -1.320000000
C     3.431000000    -2.809000000    -1.955000000
O     3.578000000    -3.951000000    -1.614000000
O     4.194000000    -2.292000000    -2.741000000
O     5.362000000     0.923000000    -6.635000000
H     4.544000000     1.133000000    -7.086000000
H     5.196000000     0.077000000    -6.220000000
O     3.596000000     1.701000000     0.174000000
H     2.890000000     1.075000000     0.010000000
H     4.319000000     1.165000000     0.501000000
O     7.920000000     0.619000000    -4.958000000
H     7.862000000    -0.013000000    -4.242000000
H     7.086000000     1.089000000    -4.931000000
O     5.638000000    -4.108000000    -0.180000000
H     5.475000000    -3.383000000     0.423000000
H     4.892000000    -4.094000000    -0.779000000
O     5.076000000    -4.648000000    -5.647000000
H     5.645000000    -5.245000000    -6.134000000
H     5.438000000    -4.642000000    -4.761000000
O     8.364000000    -1.361000000    -6.704000000
H     7.944000000    -1.931000000    -6.061000000
H     8.565000000    -0.560000000    -6.220000000
O     4.227000000    -4.805000000    -8.296000000
H     4.115000000    -3.871000000    -8.118000000
H     4.193000000    -5.218000000    -7.433000000
O     6.567000000    -6.845000000    -5.850000000
H     6.306000000    -7.742000000    -5.640000000
H     6.972000000    -6.519000000    -5.047000000
O     6.262000000    -0.160000000    -2.471000000
H     6.745000000    -0.171000000    -1.645000000
H     5.541000000    -0.775000000    -2.336000000
O     7.333000000    -0.468000000     0.000000000
H     7.198000000    -0.709000000     0.917000000
H     8.034000000    -1.047000000    -0.299000000
O     9.368000000    -2.831000000    -1.506000000
H    10.217000000    -2.395000000    -1.582000000
H     9.128000000    -3.047000000    -2.407000000
O     7.490000000    -0.925000000     2.426000000
H     7.471000000    -1.725000000     2.951000000
H     7.694000000    -0.232000000     3.054000000
O     4.545000000    -6.286000000    -2.497000000
H     4.056000000    -5.531000000    -2.171000000
H     4.117000000    -6.512000000    -3.323000000
O     4.768000000    -1.777000000    -5.408000000
H     4.790000000    -2.714000000    -5.601000000
H     4.303000000    -1.714000000    -4.574000000
O     6.140000000     2.765000000    -3.321000000
H     6.014000000     3.388000000    -2.604000000
H     6.079000000     1.906000000    -2.905000000
O     7.376000000    -2.189000000    -4.521000000
H     6.574000000    -1.673000000    -4.431000000
H     7.191000000    -3.004000000    -4.054000000
O     6.043000000    -8.433000000    -1.250000000
H     6.280000000    -8.069000000    -0.398000000
H     5.386000000    -7.828000000    -1.595000000
O     8.055000000    -5.045000000     0.018000000
H     7.195000000    -4.782000000    -0.308000000
H     8.646000000    -4.354000000    -0.281000000
O     6.275000000    -4.103000000    -3.133000000
H     6.057000000    -4.882000000    -2.621000000
H     5.557000000    -3.495000000    -2.959000000
