215
-1472.01428
C     0.265000000    -5.088000000    -0.827000000
H    -0.491000000    -4.893000000    -1.584000000
C     0.094000000    -4.635000000     0.537000000
C     1.067000000    -4.903000000     1.543000000
H     0.925000000    -4.509000000     2.546000000
C    -1.059000000    -3.807000000     0.889000000
O    -2.211000000    -4.096000000     0.118000000
H    -0.733000000    -2.761000000     0.786000000
O    -1.416000000    -4.037000000     2.308000000
C    -1.795000000    -2.854000000     2.960000000
C    -0.878000000    -2.252000000     3.757000000
H     0.111000000    -2.702000000     3.785000000
C    -1.113000000    -1.042000000     4.393000000
O     0.027000000    -0.466000000     4.916000000
C    -2.325000000    -0.393000000     4.232000000
C    -2.490000000     1.041000000     4.821000000
H    -3.537000000     1.210000000     5.081000000
C    -2.033000000     2.046000000     3.824000000
C    -3.035000000     2.622000000     3.035000000
H    -4.046000000     2.221000000     3.012000000
H    -1.928000000     1.198000000     5.745000000
C    -3.334000000    -1.105000000     3.508000000
H    -4.339000000    -0.697000000     3.445000000
C    -3.073000000    -2.309000000     2.903000000
C    -4.145000000    -3.041000000     2.051000000
H    -5.109000000    -2.846000000     2.526000000
H    -4.010000000    -4.119000000     2.160000000
C    -4.072000000    -2.649000000     0.588000000
C    -4.761000000    -1.493000000     0.147000000
H    -5.492000000    -1.061000000     0.826000000
C    -3.126000000    -3.179000000    -0.286000000
C    -3.005000000    -2.754000000    -1.583000000
H    -2.239000000    -3.241000000    -2.182000000
C    -3.751000000    -1.714000000    -2.054000000
O    -3.445000000    -1.341000000    -3.389000000
C    -2.539000000    -0.189000000    -3.392000000
C    -1.376000000    -0.313000000    -4.386000000
C    -0.783000000     0.803000000    -4.968000000
H    -1.208000000     1.789000000    -4.798000000
C    -0.765000000    -1.570000000    -4.612000000
H    -1.104000000    -2.433000000    -4.045000000
O    -3.358000000     1.033000000    -3.524000000
H    -2.038000000    -0.138000000    -2.413000000
C    -4.654000000    -1.073000000    -1.159000000
C    -5.374000000     0.212000000    -1.580000000
H    -6.233000000     0.381000000    -0.927000000
H    -5.680000000     0.002000000    -2.607000000
C    -4.499000000     1.439000000    -1.485000000
C    -4.543000000     2.259000000    -0.325000000
H    -5.155000000     2.032000000     0.545000000
C    -3.606000000     1.759000000    -2.420000000
C    -2.829000000     2.918000000    -2.343000000
H    -2.109000000     3.157000000    -3.121000000
C    -2.912000000     3.727000000    -1.195000000
O    -2.079000000     4.740000000    -0.989000000
C    -0.855000000     4.333000000    -0.306000000
C     0.453000000     4.721000000    -0.987000000
C     0.472000000     5.243000000    -2.245000000
H    -0.486000000     5.273000000    -2.758000000
C     1.705000000     4.468000000    -0.362000000
H     1.801000000     4.067000000     0.643000000
O    -0.868000000     4.854000000     0.986000000
H    -0.856000000     3.236000000    -0.221000000
C    -3.742000000     3.393000000    -0.144000000
C    -3.781000000     4.176000000     1.121000000
H    -4.775000000     4.115000000     1.570000000
H    -3.693000000     5.249000000     0.937000000
C    -2.738000000     3.640000000     2.098000000
C    -1.360000000     3.994000000     1.952000000
C    -0.419000000     3.416000000     2.774000000
H     0.617000000     3.741000000     2.723000000
C    -0.674000000     2.344000000     3.625000000
O     0.432000000     1.736000000     4.230000000
C     0.747000000     0.367000000     3.974000000
H     0.561000000     0.131000000     2.916000000
C     2.300000000     0.195000000     4.163000000
C     2.733000000    -0.996000000     4.620000000
H     2.098000000    -1.749000000     5.079000000
C     3.264000000     1.149000000     3.737000000
H     2.885000000     2.065000000     3.291000000
C     4.622000000     0.882000000     3.667000000
O     5.525000000     1.706000000     3.085000000
C     5.046000000    -0.331000000     4.179000000
H     6.070000000    -0.681000000     4.071000000
C     4.098000000    -1.196000000     4.747000000
O     4.576000000    -2.342000000     5.203000000
C     3.889000000    -3.548000000     4.891000000
C     3.742000000    -3.948000000     3.556000000
H     3.977000000    -3.274000000     2.736000000
C     3.581000000    -4.419000000     5.984000000
H     3.678000000    -4.023000000     6.991000000
C     2.974000000    -5.623000000     5.713000000
H     2.481000000    -6.179000000     6.507000000
C     2.885000000    -6.061000000     4.402000000
H     2.416000000    -7.017000000     4.184000000
C     3.353000000    -5.274000000     3.333000000
O     3.263000000    -5.859000000     2.103000000
C     2.192000000    -5.612000000     1.217000000
C     2.394000000    -6.092000000    -0.051000000
H     3.287000000    -6.679000000    -0.249000000
C     1.447000000    -5.828000000    -1.084000000
O     1.866000000    -6.229000000    -2.352000000
C     1.222000000    -5.835000000    -3.467000000
C     1.542000000    -4.631000000    -4.016000000
H     2.318000000    -4.019000000    -3.563000000
C     0.120000000    -6.556000000    -3.952000000
H    -0.190000000    -7.529000000    -3.579000000
C    -0.553000000    -6.080000000    -5.087000000
H    -1.277000000    -6.717000000    -5.589000000
C    -0.243000000    -4.821000000    -5.638000000
H    -0.877000000    -4.408000000    -6.419000000
C     0.792000000    -4.086000000    -5.065000000
O     1.124000000    -2.838000000    -5.687000000
C     0.361000000    -1.675000000    -5.426000000
C     0.911000000    -0.548000000    -6.055000000
H     1.835000000    -0.666000000    -6.616000000
C     0.323000000     0.706000000    -5.846000000
O     0.823000000     1.793000000    -6.536000000
C     0.392000000     3.123000000    -6.239000000
C     1.265000000     4.030000000    -5.696000000
H     2.248000000     3.626000000    -5.468000000
C    -0.941000000     3.549000000    -6.472000000
H    -1.732000000     2.902000000    -6.845000000
C    -1.326000000     4.880000000    -6.071000000
H    -2.319000000     5.226000000    -6.345000000
C    -0.415000000     5.789000000    -5.483000000
H    -0.645000000     6.791000000    -5.132000000
C     0.855000000     5.289000000    -5.218000000
O     1.627000000     5.929000000    -4.251000000
C     1.653000000     5.522000000    -2.926000000
C     2.887000000     5.330000000    -2.282000000
H     3.775000000     5.529000000    -2.876000000
C     2.916000000     4.774000000    -0.989000000
O     4.166000000     4.689000000    -0.407000000
C     4.349000000     4.486000000     0.917000000
C     4.345000000     5.537000000     1.838000000
H     3.888000000     6.489000000     1.581000000
C     4.709000000     5.333000000     3.177000000
H     4.813000000     6.126000000     3.914000000
C     5.178000000     4.061000000     3.564000000
H     5.482000000     3.935000000     4.600000000
C     5.151000000     3.015000000     2.635000000
C     4.754000000     3.220000000     1.302000000
H     4.829000000     2.368000000     0.631000000
C     1.230000000     0.662000000    -2.125000000
H     1.327000000     1.085000000    -3.122000000
C     0.030000000     0.773000000    -1.394000000
H    -0.767000000     1.435000000    -1.724000000
C    -0.185000000     0.017000000    -0.238000000
H    -1.227000000     0.058000000     0.222000000
C     0.876000000    -0.757000000     0.207000000
H     0.847000000    -1.239000000     1.181000000
C     2.086000000    -0.790000000    -0.439000000
H     2.997000000    -1.276000000    -0.096000000
C     2.315000000    -0.026000000    -1.591000000
C     3.632000000    -0.048000000    -2.283000000
O     4.598000000    -0.632000000    -1.781000000
O     3.888000000     0.550000000    -3.301000000
O     7.297000000     2.543000000    -0.584000000
H     7.295000000     3.493000000    -0.700000000
H     6.882000000     2.204000000    -1.378000000
O     4.057000000    -3.167000000    -7.301000000
H     4.148000000    -2.534000000    -6.588000000
H     4.954000000    -3.436000000    -7.499000000
O     4.856000000    -3.352000000    -1.596000000
H     4.949000000    -2.448000000    -1.897000000
H     3.925000000    -3.442000000    -1.392000000
O     6.687000000    -0.430000000    -7.965000000
H     7.602000000    -0.514000000    -7.697000000
H     6.223000000    -1.082000000    -7.440000000
O     6.265000000     1.572000000    -3.016000000
H     6.313000000     2.298000000    -3.638000000
H     5.419000000     1.161000000    -3.192000000
O     2.520000000     1.982000000    -8.570000000
H     1.859000000     2.154000000    -9.241000000
H     2.053000000     1.492000000    -7.893000000
O     5.720000000    -4.437000000     0.783000000
H     5.526000000    -4.208000000    -0.126000000
H     5.812000000    -3.595000000     1.228000000
O     6.772000000    -0.352000000    -0.187000000
H     5.969000000    -0.269000000    -0.700000000
H     7.178000000     0.514000000    -0.235000000
O     8.334000000     2.281000000     1.947000000
H     7.659000000     2.448000000     1.288000000
H     8.290000000     3.038000000     2.531000000
O     6.514000000    -1.196000000    -3.716000000
H     6.968000000    -1.824000000    -3.154000000
H     5.964000000    -0.692000000    -3.117000000
O     8.740000000    -2.487000000    -0.604000000
H     7.883000000    -2.077000000    -0.486000000
H     9.321000000    -1.763000000    -0.838000000
O     4.792000000     5.041000000    -5.771000000
H     4.728000000     4.089000000    -5.692000000
H     4.076000000     5.281000000    -6.359000000
O     4.709000000     2.013000000    -5.434000000
H     4.696000000     1.143000000    -5.835000000
H     4.322000000     1.883000000    -4.568000000
O     7.360000000    -4.055000000    -2.712000000
H     7.675000000    -3.565000000    -1.953000000
H     6.437000000    -4.222000000    -2.523000000
O     8.696000000     2.903000000    -4.620000000
H     9.022000000     3.793000000    -4.751000000
H     8.023000000     2.794000000    -5.292000000
O     5.265000000    -6.050000000    -4.271000000
H     4.845000000    -6.591000000    -4.940000000
H     5.557000000    -5.270000000    -4.743000000
O     4.510000000    -1.173000000    -5.542000000
H     5.312000000    -1.277000000    -5.029000000
H     3.921000000    -0.684000000    -4.968000000
O     6.773000000    -2.407000000     2.010000000
H     7.434000000    -2.341000000     2.699000000
H     6.854000000    -1.589000000     1.521000000
O     8.530000000     0.047000000    -5.271000000
H     8.712000000     0.914000000    -4.910000000
H     7.699000000    -0.210000000    -4.871000000
