215
-1463.64241
C     0.533000000    -4.789000000    -0.998000000
H    -0.118000000    -4.427000000    -1.789000000
C     0.209000000    -4.637000000     0.363000000
C     1.040000000    -5.205000000     1.356000000
H     0.725000000    -5.161000000     2.395000000
C    -1.164000000    -3.980000000     0.682000000
O    -2.242000000    -4.410000000    -0.245000000
H    -0.906000000    -2.912000000     0.653000000
O    -1.528000000    -4.265000000     2.053000000
C    -1.852000000    -3.265000000     2.864000000
C    -0.820000000    -2.773000000     3.629000000
H     0.168000000    -3.217000000     3.715000000
C    -1.052000000    -1.544000000     4.314000000
O     0.022000000    -0.881000000     4.934000000
C    -2.316000000    -0.913000000     4.210000000
C    -2.621000000     0.405000000     4.852000000
H    -3.691000000     0.519000000     5.038000000
C    -2.232000000     1.539000000     3.867000000
C    -3.151000000     2.260000000     3.113000000
H    -4.187000000     1.942000000     3.029000000
H    -2.184000000     0.611000000     5.831000000
C    -3.313000000    -1.535000000     3.465000000
H    -4.237000000    -0.981000000     3.327000000
C    -3.100000000    -2.674000000     2.667000000
C    -4.199000000    -3.259000000     1.742000000
H    -5.183000000    -2.967000000     2.115000000
H    -4.232000000    -4.324000000     1.983000000
C    -4.028000000    -2.854000000     0.308000000
C    -4.679000000    -1.709000000    -0.098000000
H    -5.377000000    -1.267000000     0.609000000
C    -3.156000000    -3.452000000    -0.616000000
C    -2.905000000    -2.855000000    -1.863000000
H    -2.123000000    -3.220000000    -2.524000000
C    -3.535000000    -1.646000000    -2.147000000
O    -3.414000000    -1.119000000    -3.398000000
C    -2.469000000    -0.033000000    -3.484000000
C    -1.487000000    -0.166000000    -4.652000000
C    -0.913000000     0.998000000    -5.314000000
H    -1.240000000     2.007000000    -5.075000000
C    -1.118000000    -1.507000000    -5.016000000
H    -1.567000000    -2.329000000    -4.465000000
O    -3.226000000     1.167000000    -3.566000000
H    -1.850000000    -0.070000000    -2.576000000
C    -4.441000000    -1.096000000    -1.271000000
C    -5.273000000     0.138000000    -1.711000000
H    -6.196000000     0.197000000    -1.130000000
H    -5.611000000     0.163000000    -2.749000000
C    -4.447000000     1.436000000    -1.427000000
C    -4.646000000     2.217000000    -0.248000000
H    -5.436000000     1.961000000     0.454000000
C    -3.546000000     1.886000000    -2.423000000
C    -2.878000000     3.068000000    -2.250000000
H    -2.128000000     3.320000000    -2.995000000
C    -3.034000000     3.854000000    -1.105000000
O    -2.030000000     4.777000000    -0.799000000
C    -0.944000000     4.201000000    -0.011000000
C     0.439000000     4.692000000    -0.535000000
C     0.892000000     4.430000000    -1.846000000
H     0.180000000     4.017000000    -2.556000000
C     1.366000000     5.190000000     0.337000000
H     1.182000000     5.307000000     1.402000000
O    -1.053000000     4.661000000     1.334000000
H    -1.068000000     3.113000000    -0.113000000
C    -3.835000000     3.385000000    -0.022000000
C    -3.813000000     3.954000000     1.369000000
H    -4.781000000     4.024000000     1.868000000
H    -3.535000000     4.998000000     1.205000000
C    -2.748000000     3.332000000     2.302000000
C    -1.396000000     3.703000000     2.262000000
C    -0.451000000     2.972000000     2.986000000
H     0.615000000     3.122000000     2.833000000
C    -0.914000000     1.976000000     3.879000000
O    -0.073000000     1.290000000     4.640000000
C     0.458000000     0.138000000     4.023000000
H     0.061000000    -0.058000000     3.016000000
C     2.022000000     0.209000000     4.008000000
C     2.719000000    -0.981000000     3.982000000
H     2.133000000    -1.896000000     3.951000000
C     2.733000000     1.406000000     4.069000000
H     2.332000000     2.414000000     4.133000000
C     4.112000000     1.366000000     3.963000000
O     4.854000000     2.512000000     3.940000000
C     4.835000000     0.184000000     3.854000000
H     5.916000000     0.278000000     3.929000000
C     4.092000000    -0.982000000     3.842000000
O     4.810000000    -2.155000000     3.730000000
C     4.310000000    -3.434000000     3.877000000
C     4.024000000    -4.203000000     2.754000000
H     4.111000000    -3.949000000     1.700000000
C     4.108000000    -3.933000000     5.129000000
H     4.361000000    -3.305000000     5.979000000
C     3.731000000    -5.245000000     5.325000000
H     3.631000000    -5.599000000     6.348000000
C     3.533000000    -6.033000000     4.240000000
H     3.274000000    -7.077000000     4.397000000
C     3.565000000    -5.517000000     3.000000000
O     3.071000000    -6.316000000     1.917000000
C     2.187000000    -5.877000000     0.968000000
C     2.522000000    -5.930000000    -0.414000000
H     3.503000000    -6.300000000    -0.702000000
C     1.686000000    -5.467000000    -1.407000000
O     2.021000000    -5.628000000    -2.746000000
C     1.112000000    -5.446000000    -3.732000000
C     1.193000000    -4.271000000    -4.480000000
H     1.930000000    -3.513000000    -4.227000000
C     0.090000000    -6.348000000    -4.031000000
H    -0.073000000    -7.313000000    -3.559000000
C    -0.787000000    -6.078000000    -5.112000000
H    -1.647000000    -6.735000000    -5.215000000
C    -0.589000000    -4.960000000    -5.875000000
H    -1.243000000    -4.699000000    -6.703000000
C     0.340000000    -4.013000000    -5.544000000
O     0.446000000    -2.871000000    -6.306000000
C    -0.037000000    -1.641000000    -5.901000000
C     0.472000000    -0.559000000    -6.591000000
H     1.244000000    -0.592000000    -7.355000000
C    -0.013000000     0.737000000    -6.342000000
O     0.618000000     1.769000000    -7.000000000
C     0.813000000     2.996000000    -6.436000000
C     1.645000000     3.093000000    -5.326000000
H     2.231000000     2.243000000    -4.988000000
C     0.137000000     4.095000000    -6.900000000
H    -0.626000000     3.950000000    -7.660000000
C     0.320000000     5.301000000    -6.319000000
H    -0.227000000     6.111000000    -6.795000000
C     1.134000000     5.429000000    -5.222000000
H     1.437000000     6.419000000    -4.893000000
C     1.804000000     4.320000000    -4.712000000
O     2.597000000     4.515000000    -3.583000000
C     2.170000000     4.770000000    -2.295000000
C     3.106000000     5.257000000    -1.370000000
H     4.124000000     5.448000000    -1.700000000
C     2.716000000     5.535000000    -0.095000000
O     3.743000000     5.800000000     0.785000000
C     3.774000000     5.336000000     2.044000000
C     3.482000000     6.229000000     3.090000000
H     3.326000000     7.263000000     2.791000000
C     3.757000000     5.932000000     4.427000000
H     3.518000000     6.601000000     5.250000000
C     4.135000000     4.623000000     4.729000000
H     4.365000000     4.313000000     5.745000000
C     4.356000000     3.703000000     3.642000000
C     4.200000000     4.043000000     2.330000000
H     4.460000000     3.238000000     1.648000000
C     2.204000000     1.058000000    -1.543000000
H     2.484000000     1.732000000    -2.349000000
C     0.840000000     1.039000000    -1.064000000
H     0.044000000     1.591000000    -1.556000000
C     0.559000000     0.190000000     0.018000000
H    -0.406000000     0.132000000     0.447000000
C     1.573000000    -0.667000000     0.490000000
H     1.326000000    -1.299000000     1.339000000
C     2.878000000    -0.578000000     0.086000000
H     3.644000000    -1.187000000     0.559000000
C     3.271000000     0.330000000    -0.896000000
C     4.721000000     0.528000000    -1.267000000
O     5.570000000    -0.182000000    -0.757000000
O     5.008000000     1.579000000    -1.727000000
O     6.659000000     3.359000000     0.347000000
H     7.471000000     3.390000000    -0.159000000
H     6.009000000     3.012000000    -0.264000000
O     6.781000000     0.380000000    -5.753000000
H     6.410000000     1.262000000    -5.774000000
H     6.148000000    -0.134000000    -5.251000000
O     5.049000000    -3.072000000    -0.552000000
H     5.016000000    -2.118000000    -0.625000000
H     4.870000000    -3.385000000    -1.439000000
O     7.968000000    -3.936000000    -3.508000000
H     8.054000000    -3.019000000    -3.245000000
H     8.701000000    -4.083000000    -4.106000000
O     5.748000000     3.974000000    -2.981000000
H     5.013000000     4.329000000    -3.482000000
H     5.381000000     3.219000000    -2.520000000
O     6.849000000    -4.873000000     0.892000000
H     6.314000000    -4.211000000     0.454000000
H     7.263000000    -4.406000000     1.617000000
O     6.850000000     0.904000000     1.439000000
H     6.515000000     0.400000000     0.698000000
H     6.647000000     1.814000000     1.221000000
O     8.333000000    -0.543000000     3.078000000
H     7.908000000     0.090000000     2.499000000
H     9.269000000    -0.370000000     2.977000000
O     7.471000000    -1.359000000    -2.172000000
H     8.119000000    -1.766000000    -1.598000000
H     6.832000000    -0.970000000    -1.575000000
O     4.455000000     3.147000000    -6.562000000
H     3.995000000     3.978000000    -6.682000000
H     4.501000000     3.033000000    -5.612000000
O     4.312000000     1.443000000    -4.450000000
H     4.577000000     0.527000000    -4.541000000
H     4.525000000     1.665000000    -3.543000000
O     9.010000000     2.247000000    -0.770000000
H     9.040000000     1.812000000    -1.623000000
H     8.951000000     1.530000000    -0.138000000
O     8.217000000     5.076000000    -2.217000000
H     8.754000000     4.283000000    -2.228000000
H     7.343000000     4.776000000    -2.466000000
O     9.465000000    -2.336000000    -0.216000000
H    10.242000000    -2.315000000    -0.774000000
H     9.732000000    -1.882000000     0.583000000
O     5.005000000    -4.117000000    -3.878000000
H     5.948000000    -4.280000000    -3.849000000
H     4.690000000    -4.660000000    -4.600000000
O     5.281000000    -1.014000000    -3.977000000
H     4.624000000    -1.709000000    -3.954000000
H     6.006000000    -1.351000000    -3.450000000
O     7.204000000    -3.176000000     3.022000000
H     6.322000000    -3.033000000     3.365000000
H     7.579000000    -2.298000000     2.952000000
O     8.902000000     1.182000000    -3.172000000
H     7.965000000     1.008000000    -3.258000000
H     9.325000000     0.449000000    -3.619000000
O     7.993000000     2.818000000     3.903000000
H     7.774000000     3.662000000     3.508000000
H     7.418000000     2.192000000     3.463000000
