215
-1446.33138
C    -5.008000000     1.715000000    -1.526000000
H    -4.882000000     2.574000000    -2.180000000
C    -4.522000000     1.582000000    -0.200000000
C    -5.080000000     0.593000000     0.625000000
H    -4.744000000     0.571000000     1.659000000
C    -3.454000000     2.493000000     0.273000000
O    -3.136000000     3.615000000    -0.637000000
H    -2.576000000     1.842000000     0.398000000
O    -3.713000000     2.912000000     1.554000000
C    -2.688000000     2.953000000     2.448000000
C    -2.562000000     1.919000000     3.354000000
H    -3.286000000     1.110000000     3.412000000
C    -1.393000000     1.824000000     4.119000000
O    -1.169000000     0.689000000     4.912000000
C    -0.370000000     2.796000000     4.041000000
C     0.967000000     2.688000000     4.796000000
H     1.394000000     3.693000000     4.827000000
C     1.953000000     1.785000000     4.069000000
C     2.980000000     2.397000000     3.320000000
H     3.047000000     3.481000000     3.294000000
H     0.859000000     2.293000000     5.808000000
C    -0.574000000     3.861000000     3.157000000
H     0.260000000     4.556000000     3.101000000
C    -1.707000000     3.929000000     2.361000000
C    -1.699000000     5.072000000     1.370000000
H    -1.072000000     5.884000000     1.742000000
H    -2.725000000     5.443000000     1.330000000
C    -1.093000000     4.746000000     0.010000000
C     0.308000000     5.099000000    -0.312000000
H     0.945000000     5.618000000     0.401000000
C    -1.869000000     3.992000000    -0.891000000
C    -1.365000000     3.696000000    -2.105000000
H    -1.996000000     3.131000000    -2.787000000
C    -0.045000000     3.984000000    -2.387000000
O     0.398000000     3.401000000    -3.543000000
C     1.266000000     2.227000000    -3.302000000
C     0.904000000     1.055000000    -4.220000000
C     1.887000000     0.224000000    -4.752000000
H     2.904000000     0.553000000    -4.554000000
C    -0.494000000     0.836000000    -4.555000000
H    -1.247000000     1.411000000    -4.022000000
O     2.649000000     2.538000000    -3.408000000
H     1.041000000     1.836000000    -2.299000000
C     0.859000000     4.616000000    -1.488000000
C     2.322000000     4.878000000    -1.759000000
H     2.837000000     5.681000000    -1.229000000
H     2.391000000     5.097000000    -2.827000000
C     3.145000000     3.639000000    -1.312000000
C     3.770000000     3.594000000    -0.069000000
H     3.624000000     4.350000000     0.698000000
C     3.337000000     2.581000000    -2.206000000
C     4.123000000     1.496000000    -1.841000000
H     4.332000000     0.604000000    -2.426000000
C     4.607000000     1.439000000    -0.570000000
O     5.105000000     0.209000000    -0.267000000
C     4.266000000    -0.640000000     0.500000000
C     4.191000000    -2.110000000    -0.094000000
C     4.626000000    -2.378000000    -1.432000000
H     5.149000000    -1.647000000    -2.043000000
C     3.508000000    -3.122000000     0.578000000
H     3.080000000    -2.893000000     1.550000000
O     4.624000000    -0.565000000     1.884000000
H     3.209000000    -0.336000000     0.491000000
C     4.534000000     2.483000000     0.306000000
C     4.933000000     2.306000000     1.757000000
H     5.040000000     3.299000000     2.199000000
H     5.880000000     1.771000000     1.848000000
C     3.882000000     1.611000000     2.632000000
C     3.804000000     0.207000000     2.727000000
C     2.733000000    -0.347000000     3.436000000
H     2.640000000    -1.429000000     3.397000000
C     1.826000000     0.385000000     4.078000000
O     0.887000000    -0.350000000     4.735000000
C    -0.428000000    -0.439000000     4.241000000
H    -0.357000000    -0.293000000     3.154000000
C    -1.062000000    -1.812000000     4.477000000
C    -2.440000000    -1.932000000     4.403000000
H    -3.089000000    -1.072000000     4.259000000
C    -0.287000000    -2.966000000     4.471000000
H     0.799000000    -2.926000000     4.450000000
C    -0.894000000    -4.182000000     4.537000000
O    -0.205000000    -5.427000000     4.471000000
C    -2.277000000    -4.281000000     4.578000000
H    -2.730000000    -5.266000000     4.652000000
C    -3.062000000    -3.163000000     4.409000000
O    -4.390000000    -3.312000000     4.295000000
C    -5.337000000    -2.367000000     4.008000000
C    -5.457000000    -1.973000000     2.670000000
H    -4.825000000    -2.359000000     1.874000000
C    -6.376000000    -2.047000000     4.897000000
H    -6.320000000    -2.443000000     5.908000000
C    -7.546000000    -1.450000000     4.417000000
H    -8.413000000    -1.186000000     5.017000000
C    -7.570000000    -0.987000000     3.114000000
H    -8.485000000    -0.525000000     2.752000000
C    -6.563000000    -1.309000000     2.215000000
O    -6.728000000    -1.120000000     0.894000000
C    -6.040000000    -0.256000000     0.142000000
C    -6.510000000    -0.155000000    -1.186000000
H    -7.161000000    -0.892000000    -1.651000000
C    -5.906000000     0.767000000    -2.026000000
O    -6.182000000     0.645000000    -3.420000000
C    -5.191000000     1.029000000    -4.296000000
C    -4.159000000     0.139000000    -4.643000000
H    -4.222000000    -0.834000000    -4.162000000
C    -5.178000000     2.319000000    -4.870000000
H    -5.996000000     2.992000000    -4.628000000
C    -4.164000000     2.681000000    -5.709000000
H    -4.266000000     3.554000000    -6.349000000
C    -3.085000000     1.807000000    -5.972000000
H    -2.244000000     2.092000000    -6.598000000
C    -3.102000000     0.509000000    -5.427000000
O    -2.111000000    -0.395000000    -5.751000000
C    -0.838000000    -0.226000000    -5.399000000
C     0.187000000    -1.002000000    -6.003000000
H    -0.076000000    -1.750000000    -6.746000000
C     1.523000000    -0.743000000    -5.738000000
O     2.414000000    -1.478000000    -6.468000000
C     3.562000000    -1.898000000    -5.911000000
C     3.645000000    -2.553000000    -4.682000000
H     2.758000000    -2.750000000    -4.085000000
C     4.696000000    -1.927000000    -6.758000000
H     4.607000000    -1.512000000    -7.759000000
C     5.880000000    -2.498000000    -6.372000000
H     6.700000000    -2.622000000    -7.075000000
C     5.999000000    -3.045000000    -5.118000000
H     6.922000000    -3.546000000    -4.839000000
C     4.870000000    -3.141000000    -4.265000000
O     5.072000000    -3.925000000    -3.192000000
C     4.525000000    -3.669000000    -1.946000000
C     3.939000000    -4.712000000    -1.202000000
H     3.817000000    -5.709000000    -1.619000000
C     3.375000000    -4.424000000     0.019000000
O     2.720000000    -5.500000000     0.677000000
C     2.486000000    -5.609000000     1.946000000
C     3.557000000    -5.499000000     2.850000000
H     4.515000000    -5.481000000     2.336000000
C     3.396000000    -5.598000000     4.210000000
H     4.250000000    -5.873000000     4.824000000
C     2.112000000    -5.554000000     4.724000000
H     1.782000000    -5.656000000     5.755000000
C     1.010000000    -5.499000000     3.865000000
C     1.225000000    -5.513000000     2.522000000
H     0.382000000    -5.253000000     1.886000000
C    -1.751000000    -1.650000000    -1.333000000
H    -2.450000000    -1.738000000    -2.161000000
C    -1.261000000    -0.372000000    -1.010000000
H    -1.643000000     0.496000000    -1.543000000
C    -0.328000000    -0.183000000    -0.021000000
H    -0.111000000     0.856000000     0.215000000
C     0.067000000    -1.238000000     0.688000000
H     0.642000000    -1.088000000     1.598000000
C    -0.397000000    -2.554000000     0.365000000
H     0.012000000    -3.334000000     1.001000000
C    -1.330000000    -2.801000000    -0.674000000
C    -1.863000000    -4.129000000    -1.091000000
O    -1.716000000    -5.009000000    -0.341000000
O    -2.311000000    -4.314000000    -2.216000000
O    -3.987000000    -6.859000000    -6.040000000
H    -3.526000000    -6.095000000    -6.385000000
H    -3.479000000    -7.118000000    -5.271000000
O     1.931000000    -8.149000000    -0.297000000
H     2.778000000    -8.186000000    -0.741000000
H     1.456000000    -7.449000000    -0.743000000
O    -4.651000000    -7.704000000     2.832000000
H    -4.549000000    -6.783000000     2.593000000
H    -3.758000000    -8.011000000     2.987000000
O     0.979000000    -5.862000000    -5.222000000
H     0.214000000    -6.435000000    -5.174000000
H     0.772000000    -5.136000000    -4.634000000
O    -1.309000000    -7.521000000    -5.072000000
H    -1.901000000    -7.155000000    -4.415000000
H    -1.868000000    -8.075000000    -5.616000000
O    -1.073000000    -7.307000000     0.654000000
H    -1.239000000    -6.494000000     0.178000000
H    -0.148000000    -7.493000000     0.496000000
O     0.564000000    -4.054000000    -3.260000000
H     0.853000000    -3.219000000    -2.892000000
H    -0.281000000    -3.857000000    -3.666000000
O    -1.793000000    -3.275000000    -4.422000000
H    -2.627000000    -3.131000000    -4.868000000
H    -2.037000000    -3.619000000    -3.563000000
O     0.751000000    -6.173000000    -1.534000000
H    -0.067000000    -5.772000000    -1.241000000
H     1.126000000    -5.537000000    -2.142000000
O    -5.093000000    -3.873000000    -2.311000000
H    -5.388000000    -4.549000000    -1.701000000
H    -4.146000000    -3.828000000    -2.179000000
O    -2.745000000    -9.199000000    -0.567000000
H    -3.506000000    -8.788000000    -0.978000000
H    -2.372000000    -8.513000000    -0.014000000
O    -4.962000000    -3.101000000    -4.929000000
H    -5.258000000    -3.386000000    -4.065000000
H    -5.722000000    -3.226000000    -5.497000000
O    -7.706000000    -5.624000000    -2.397000000
H    -7.132000000    -6.227000000    -2.869000000
H    -7.161000000    -5.277000000    -1.691000000
O    -1.933000000    -8.446000000     2.921000000
H    -1.161000000    -8.523000000     3.481000000
H    -1.680000000    -7.812000000     2.250000000
O    -3.650000000    -5.027000000     1.916000000
H    -3.594000000    -4.190000000     2.376000000
H    -2.931000000    -5.003000000     1.285000000
O     1.210000000    -1.730000000    -2.295000000
H     0.763000000    -1.252000000    -1.597000000
H     1.223000000    -1.121000000    -3.033000000
O    -4.985000000    -7.869000000    -1.578000000
H    -5.629000000    -8.173000000    -2.217000000
H    -5.288000000    -6.996000000    -1.330000000
O    -6.154000000    -5.368000000     0.232000000
H    -5.347000000    -5.182000000     0.712000000
H    -6.725000000    -5.786000000     0.876000000
O    -3.211000000    -6.522000000    -3.440000000
H    -2.775000000    -5.727000000    -3.134000000
H    -3.489000000    -6.966000000    -2.639000000
