215
-1436.35742
C     1.492000000    -5.104000000    -2.333000000
H     0.629000000    -5.255000000    -2.976000000
C     1.361000000    -4.764000000    -0.999000000
C     2.463000000    -4.615000000    -0.228000000
H     2.420000000    -4.344000000     0.824000000
C     0.043000000    -4.325000000    -0.501000000
O    -1.160000000    -4.768000000    -1.197000000
H     0.103000000    -3.236000000    -0.646000000
O    -0.176000000    -4.675000000     0.941000000
C    -0.766000000    -3.885000000     1.882000000
C    -0.017000000    -3.340000000     2.941000000
H     1.029000000    -3.611000000     3.057000000
C    -0.595000000    -2.477000000     3.855000000
O     0.274000000    -1.871000000     4.669000000
C    -1.972000000    -2.264000000     3.885000000
C    -2.658000000    -1.301000000     4.767000000
H    -3.717000000    -1.532000000     4.898000000
C    -2.532000000     0.132000000     4.211000000
C    -3.532000000     0.577000000     3.379000000
H    -4.299000000    -0.120000000     3.050000000
H    -2.228000000    -1.380000000     5.768000000
C    -2.685000000    -2.941000000     2.911000000
H    -3.763000000    -2.812000000     2.851000000
C    -2.111000000    -3.747000000     1.964000000
C    -3.061000000    -4.414000000     1.013000000
H    -4.064000000    -4.629000000     1.389000000
H    -2.525000000    -5.353000000     0.857000000
C    -3.192000000    -3.700000000    -0.361000000
C    -4.193000000    -2.738000000    -0.611000000
H    -4.897000000    -2.491000000     0.180000000
C    -2.172000000    -3.863000000    -1.320000000
C    -2.228000000    -3.198000000    -2.555000000
H    -1.413000000    -3.391000000    -3.248000000
C    -3.080000000    -2.190000000    -2.785000000
O    -2.879000000    -1.279000000    -3.760000000
C    -2.236000000    -0.016000000    -3.425000000
C    -1.154000000     0.379000000    -4.438000000
C    -0.784000000     1.666000000    -4.688000000
H    -1.256000000     2.554000000    -4.274000000
C    -0.423000000    -0.699000000    -4.977000000
H    -0.652000000    -1.733000000    -4.732000000
O    -3.285000000     1.032000000    -3.387000000
H    -1.781000000    -0.063000000    -2.425000000
C    -4.092000000    -1.987000000    -1.804000000
C    -5.107000000    -0.857000000    -1.943000000
H    -6.067000000    -1.054000000    -1.462000000
H    -5.302000000    -0.767000000    -3.014000000
C    -4.522000000     0.420000000    -1.351000000
C    -4.937000000     0.825000000    -0.065000000
H    -5.571000000     0.216000000     0.575000000
C    -3.674000000     1.329000000    -2.131000000
C    -3.183000000     2.408000000    -1.523000000
H    -2.689000000     3.170000000    -2.120000000
C    -3.504000000     2.710000000    -0.233000000
O    -2.989000000     3.842000000     0.245000000
C    -1.798000000     3.737000000     1.077000000
C    -0.776000000     4.897000000     0.719000000
C    -0.640000000     5.280000000    -0.624000000
H    -1.478000000     5.137000000    -1.301000000
C     0.268000000     5.089000000     1.568000000
H     0.215000000     4.598000000     2.537000000
O    -2.139000000     3.839000000     2.420000000
H    -1.287000000     2.780000000     0.894000000
C    -4.417000000     1.978000000     0.471000000
C    -4.630000000     2.370000000     1.922000000
H    -5.596000000     1.933000000     2.183000000
H    -4.657000000     3.462000000     1.943000000
C    -3.462000000     1.894000000     2.817000000
C    -2.400000000     2.703000000     3.128000000
C    -1.310000000     2.218000000     3.889000000
H    -0.511000000     2.928000000     4.087000000
C    -1.365000000     0.951000000     4.396000000
O    -0.318000000     0.460000000     5.121000000
C     0.540000000    -0.418000000     4.383000000
H     0.331000000    -0.194000000     3.326000000
C     2.004000000    -0.066000000     4.522000000
C     2.995000000    -0.869000000     3.942000000
H     2.748000000    -1.807000000     3.452000000
C     2.386000000     1.110000000     5.121000000
H     1.724000000     1.807000000     5.628000000
C     3.706000000     1.537000000     5.054000000
O     3.995000000     2.849000000     5.316000000
C     4.683000000     0.708000000     4.454000000
H     5.672000000     1.133000000     4.303000000
C     4.337000000    -0.524000000     4.000000000
O     5.316000000    -1.293000000     3.388000000
C     5.152000000    -2.614000000     2.944000000
C     4.990000000    -2.871000000     1.607000000
H     5.142000000    -2.201000000     0.764000000
C     5.218000000    -3.614000000     3.836000000
H     5.425000000    -3.373000000     4.876000000
C     5.047000000    -4.948000000     3.486000000
H     5.114000000    -5.704000000     4.263000000
C     4.791000000    -5.181000000     2.155000000
H     4.674000000    -6.177000000     1.736000000
C     4.812000000    -4.162000000     1.247000000
O     4.820000000    -4.509000000    -0.076000000
C     3.708000000    -4.740000000    -0.820000000
C     3.854000000    -4.987000000    -2.158000000
H     4.823000000    -5.244000000    -2.577000000
C     2.741000000    -5.267000000    -2.914000000
O     2.747000000    -5.481000000    -4.280000000
C     1.883000000    -4.858000000    -5.117000000
C     1.887000000    -3.487000000    -5.308000000
H     2.574000000    -2.797000000    -4.824000000
C     1.005000000    -5.603000000    -5.848000000
H     1.101000000    -6.657000000    -5.604000000
C     0.079000000    -4.985000000    -6.716000000
H    -0.730000000    -5.480000000    -7.246000000
C     0.116000000    -3.581000000    -6.896000000
H    -0.564000000    -3.126000000    -7.612000000
C     1.132000000    -2.784000000    -6.267000000
O     1.323000000    -1.413000000    -6.573000000
C     0.614000000    -0.441000000    -5.851000000
C     1.031000000     0.897000000    -6.102000000
H     1.909000000     1.045000000    -6.726000000
C     0.243000000     1.940000000    -5.582000000
O     0.509000000     3.248000000    -6.022000000
C     0.169000000     4.347000000    -5.298000000
C     0.737000000     4.754000000    -4.066000000
H     1.666000000     4.361000000    -3.660000000
C    -0.951000000     5.022000000    -5.788000000
H    -1.383000000     4.719000000    -6.738000000
C    -1.564000000     6.092000000    -5.077000000
H    -2.434000000     6.562000000    -5.529000000
C    -1.033000000     6.384000000    -3.885000000
H    -1.494000000     7.251000000    -3.418000000
C     0.149000000     5.805000000    -3.396000000
O     0.694000000     6.362000000    -2.267000000
C     0.570000000     5.889000000    -1.001000000
C     1.589000000     6.110000000    -0.116000000
H     2.445000000     6.708000000    -0.417000000
C     1.456000000     5.743000000     1.228000000
O     2.448000000     6.049000000     2.080000000
C     2.496000000     5.538000000     3.338000000
C     1.876000000     6.232000000     4.419000000
H     1.279000000     7.096000000     4.137000000
C     1.993000000     5.816000000     5.772000000
H     1.566000000     6.482000000     6.517000000
C     2.604000000     4.630000000     6.060000000
H     2.873000000     4.283000000     7.055000000
C     3.189000000     3.942000000     4.978000000
C     3.187000000     4.382000000     3.661000000
H     3.833000000     3.886000000     2.942000000
C     1.859000000     1.094000000    -1.754000000
H     2.051000000     1.807000000    -2.551000000
C     0.612000000     1.077000000    -1.169000000
H    -0.089000000     1.804000000    -1.571000000
C     0.210000000     0.117000000    -0.270000000
H    -0.747000000     0.179000000     0.220000000
C     1.147000000    -0.909000000     0.007000000
H     0.895000000    -1.625000000     0.786000000
C     2.468000000    -0.926000000    -0.549000000
H     3.233000000    -1.674000000    -0.361000000
C     2.823000000     0.184000000    -1.340000000
C     4.140000000     0.231000000    -2.079000000
O     4.916000000    -0.653000000    -2.209000000
O     4.493000000     1.318000000    -2.488000000
O     6.956000000    -0.761000000    -0.486000000
H     6.993000000    -1.716000000    -0.544000000
H     6.278000000    -0.509000000    -1.114000000
O     7.092000000     4.521000000    -2.412000000
H     6.977000000     5.068000000    -1.634000000
H     7.135000000     3.627000000    -2.072000000
O     3.274000000     4.768000000    -6.188000000
H     3.852000000     5.308000000    -5.649000000
H     3.231000000     3.930000000    -5.726000000
O     5.842000000     1.560000000    -6.897000000
H     6.510000000     1.539000000    -6.211000000
H     6.287000000     1.224000000    -7.675000000
O     3.930000000     2.303000000    -4.926000000
H     4.127000000     1.762000000    -4.162000000
H     4.535000000     1.995000000    -5.600000000
O     4.339000000     3.691000000    -0.955000000
H     4.006000000     2.883000000    -0.562000000
H     4.485000000     3.467000000    -1.874000000
O     7.146000000     2.200000000    -4.606000000
H     6.691000000     1.473000000    -4.179000000
H     6.463000000     2.855000000    -4.754000000
O     7.068000000     1.276000000     1.850000000
H     6.532000000     0.718000000     1.287000000
H     7.921000000     0.841000000     1.877000000
O     8.740000000    -3.238000000    -5.313000000
H     9.052000000    -2.751000000    -4.551000000
H     9.168000000    -4.092000000    -5.243000000
O     6.545000000    -0.413000000    -4.131000000
H     6.015000000    -0.439000000    -3.334000000
H     7.173000000    -1.127000000    -4.025000000
O     6.095000000    -3.692000000    -5.077000000
H     5.639000000    -3.936000000    -5.882000000
H     7.007000000    -3.577000000    -5.343000000
O     6.324000000    -3.000000000    -2.561000000
H     6.423000000    -3.039000000    -3.512000000
H     5.741000000    -2.256000000    -2.411000000
O     6.056000000     3.759000000     1.391000000
H     6.313000000     2.915000000     1.761000000
H     5.710000000     3.546000000     0.524000000
O     9.984000000     0.033000000    -1.577000000
H     9.773000000    -0.869000000    -1.819000000
H    10.779000000     0.233000000    -2.071000000
O     9.588000000    -2.665000000    -2.478000000
H    10.473000000    -3.025000000    -2.410000000
H     9.117000000    -3.047000000    -1.737000000
O     7.523000000    -3.689000000    -0.083000000
H     7.075000000    -3.751000000    -0.927000000
H     6.831000000    -3.823000000     0.565000000
O     4.634000000     6.061000000    -2.571000000
H     4.040000000     5.571000000    -2.003000000
H     5.378000000     5.473000000    -2.703000000
O     9.671000000     1.964000000    -3.472000000
H     8.761000000     2.100000000    -3.736000000
H     9.622000000     1.768000000    -2.536000000
O     6.749000000     2.034000000    -1.472000000
H     7.245000000     1.241000000    -1.270000000
H     5.972000000     1.720000000    -1.934000000
