215
-1496.93091
C     2.027000000    -3.587000000    -1.504000000
H     1.552000000    -2.861000000    -2.160000000
C     1.358000000    -4.385000000    -0.585000000
C     2.120000000    -5.175000000     0.236000000
H     1.707000000    -5.706000000     1.089000000
C    -0.116000000    -4.173000000    -0.356000000
O    -0.863000000    -4.472000000    -1.583000000
H    -0.372000000    -3.138000000    -0.087000000
O    -0.632000000    -5.051000000     0.693000000
C    -1.362000000    -4.413000000     1.667000000
C    -0.723000000    -3.790000000     2.722000000
H     0.355000000    -3.807000000     2.859000000
C    -1.380000000    -2.818000000     3.427000000
O    -0.655000000    -2.094000000     4.294000000
C    -2.723000000    -2.594000000     3.246000000
C    -3.471000000    -1.557000000     4.038000000
H    -4.536000000    -1.793000000     3.992000000
C    -3.226000000    -0.162000000     3.524000000
C    -4.180000000     0.408000000     2.696000000
H    -5.130000000    -0.072000000     2.477000000
H    -3.199000000    -1.652000000     5.091000000
C    -3.383000000    -3.203000000     2.162000000
H    -4.363000000    -2.875000000     1.826000000
C    -2.691000000    -4.086000000     1.352000000
C    -3.298000000    -4.476000000     0.016000000
H    -4.379000000    -4.468000000     0.171000000
H    -3.087000000    -5.494000000    -0.317000000
C    -3.010000000    -3.538000000    -1.179000000
C    -3.970000000    -2.586000000    -1.554000000
H    -4.894000000    -2.582000000    -0.982000000
C    -1.863000000    -3.671000000    -1.951000000
C    -1.677000000    -2.881000000    -3.074000000
H    -0.754000000    -3.095000000    -3.606000000
C    -2.519000000    -1.839000000    -3.331000000
O    -2.178000000    -0.983000000    -4.350000000
C    -1.818000000     0.406000000    -3.938000000
C    -0.680000000     0.882000000    -4.809000000
C    -0.412000000     2.236000000    -4.931000000
H    -1.111000000     2.989000000    -4.575000000
C     0.227000000    -0.024000000    -5.293000000
H     0.129000000    -1.089000000    -5.100000000
O    -2.974000000     1.359000000    -4.057000000
H    -1.464000000     0.309000000    -2.901000000
C    -3.738000000    -1.705000000    -2.635000000
C    -4.778000000    -0.652000000    -2.926000000
H    -5.719000000    -1.030000000    -2.522000000
H    -4.886000000    -0.480000000    -3.999000000
C    -4.405000000     0.712000000    -2.240000000
C    -4.754000000     0.942000000    -0.891000000
H    -5.442000000     0.249000000    -0.413000000
C    -3.605000000     1.642000000    -2.933000000
C    -3.197000000     2.762000000    -2.220000000
H    -2.484000000     3.447000000    -2.671000000
C    -3.660000000     3.050000000    -0.906000000
O    -2.993000000     4.056000000    -0.181000000
C    -1.866000000     3.604000000     0.651000000
C    -0.669000000     4.532000000     0.530000000
C    -0.429000000     5.309000000    -0.637000000
H    -1.143000000     5.285000000    -1.457000000
C     0.217000000     4.579000000     1.580000000
H    -0.010000000     3.982000000     2.460000000
O    -2.343000000     3.635000000     2.006000000
H    -1.494000000     2.655000000     0.237000000
C    -4.423000000     2.092000000    -0.219000000
C    -4.861000000     2.371000000     1.221000000
H    -5.839000000     1.885000000     1.228000000
H    -4.942000000     3.447000000     1.389000000
C    -3.903000000     1.703000000     2.158000000
C    -2.713000000     2.379000000     2.542000000
C    -1.886000000     1.834000000     3.487000000
H    -0.995000000     2.402000000     3.745000000
C    -2.062000000     0.578000000     3.966000000
O    -0.995000000     0.083000000     4.663000000
C    -0.142000000    -0.818000000     3.947000000
H    -0.162000000    -0.616000000     2.866000000
C     1.367000000    -0.638000000     4.311000000
C     2.339000000    -1.697000000     4.232000000
H     2.069000000    -2.717000000     3.972000000
C     1.778000000     0.518000000     4.952000000
H     1.082000000     1.293000000     5.264000000
C     3.156000000     0.775000000     5.086000000
O     3.611000000     2.009000000     5.437000000
C     4.154000000    -0.187000000     4.864000000
H     5.206000000     0.086000000     4.895000000
C     3.709000000    -1.442000000     4.492000000
O     4.729000000    -2.398000000     4.417000000
C     4.493000000    -3.695000000     4.008000000
C     4.337000000    -4.031000000     2.705000000
H     4.150000000    -3.222000000     2.004000000
C     4.749000000    -4.668000000     4.949000000
H     4.836000000    -4.421000000     6.004000000
C     4.718000000    -6.023000000     4.571000000
H     4.735000000    -6.802000000     5.328000000
C     4.459000000    -6.326000000     3.254000000
H     4.563000000    -7.333000000     2.857000000
C     4.297000000    -5.389000000     2.310000000
O     4.246000000    -5.861000000     1.014000000
C     3.479000000    -5.196000000     0.140000000
C     4.165000000    -4.486000000    -0.902000000
H     5.249000000    -4.567000000    -0.921000000
C     3.387000000    -3.714000000    -1.721000000
O     4.055000000    -3.208000000    -2.833000000
C     3.311000000    -3.094000000    -3.987000000
C     3.169000000    -1.778000000    -4.597000000
H     3.428000000    -0.881000000    -4.040000000
C     2.973000000    -4.252000000    -4.746000000
H     3.054000000    -5.197000000    -4.214000000
C     2.339000000    -4.115000000    -5.975000000
H     2.071000000    -5.009000000    -6.534000000
C     2.116000000    -2.853000000    -6.504000000
H     1.589000000    -2.848000000    -7.455000000
C     2.624000000    -1.691000000    -5.828000000
O     2.339000000    -0.519000000    -6.389000000
C     1.482000000     0.382000000    -5.752000000
C     1.677000000     1.738000000    -5.965000000
H     2.658000000     2.077000000    -6.290000000
C     0.698000000     2.664000000    -5.629000000
O     0.915000000     4.051000000    -5.791000000
C     0.363000000     5.075000000    -5.092000000
C     1.008000000     5.462000000    -3.931000000
H     1.947000000     5.025000000    -3.602000000
C    -0.777000000     5.719000000    -5.620000000
H    -1.137000000     5.436000000    -6.606000000
C    -1.402000000     6.703000000    -4.893000000
H    -2.301000000     7.134000000    -5.328000000
C    -0.895000000     7.014000000    -3.623000000
H    -1.373000000     7.666000000    -2.897000000
C     0.410000000     6.469000000    -3.196000000
O     0.881000000     6.847000000    -1.970000000
C     0.604000000     6.185000000    -0.721000000
C     1.582000000     6.189000000     0.334000000
H     2.439000000     6.830000000     0.144000000
C     1.371000000     5.430000000     1.489000000
O     2.341000000     5.479000000     2.457000000
C     2.201000000     4.910000000     3.663000000
C     1.311000000     5.427000000     4.609000000
H     0.738000000     6.326000000     4.398000000
C     1.195000000     4.742000000     5.858000000
H     0.368000000     5.043000000     6.496000000
C     1.973000000     3.624000000     6.179000000
H     1.979000000     3.123000000     7.145000000
C     2.843000000     3.147000000     5.221000000
C     2.962000000     3.842000000     3.991000000
H     3.741000000     3.485000000     3.322000000
C     1.299000000     1.875000000    -1.776000000
H     1.333000000     2.826000000    -2.302000000
C     0.112000000     1.399000000    -1.255000000
H    -0.760000000     2.028000000    -1.412000000
C     0.028000000     0.263000000    -0.473000000
H    -0.956000000    -0.010000000     0.026000000
C     1.157000000    -0.498000000    -0.292000000
H     1.246000000    -1.427000000     0.264000000
C     2.400000000    -0.119000000    -0.868000000
H     3.235000000    -0.813000000    -0.821000000
C     2.464000000     1.042000000    -1.632000000
C     3.787000000     1.577000000    -2.172000000
O     4.734000000     0.803000000    -2.398000000
O     3.988000000     2.775000000    -2.268000000
O     6.980000000     2.200000000    -1.815000000
H     6.919000000     3.064000000    -2.222000000
H     6.155000000     1.771000000    -2.039000000
O     4.760000000     5.887000000     0.760000000
H     3.936000000     5.638000000     1.180000000
H     5.341000000     5.142000000     0.911000000
O     4.217000000     3.584000000    -7.574000000
H     4.854000000     2.877000000    -7.683000000
H     4.326000000     3.867000000    -6.667000000
O     4.956000000     3.438000000    -4.728000000
H     4.638000000     3.173000000    -3.865000000
H     5.571000000     4.149000000    -4.549000000
O     6.782000000     0.032000000     2.875000000
H     6.226000000    -0.504000000     2.310000000
H     7.316000000     0.545000000     2.267000000
O     4.585000000     5.453000000    -1.901000000
H     4.373000000     4.520000000    -1.895000000
H     4.502000000     5.723000000    -0.986000000
O     5.339000000    -1.526000000     0.816000000
H     5.753000000    -1.541000000    -0.048000000
H     5.714000000    -2.278000000     1.274000000
O     9.592000000     3.171000000    -1.026000000
H     8.666000000     3.008000000    -1.205000000
H    10.058000000     2.595000000    -1.632000000
O     8.020000000     0.162000000    -3.936000000
H     7.740000000     0.022000000    -3.031000000
H     7.212000000     0.365000000    -4.407000000
O     4.006000000     0.880000000     1.743000000
H     4.241000000     1.027000000     2.659000000
H     4.298000000    -0.013000000     1.561000000
O     6.067000000    -1.459000000    -2.037000000
H     5.746000000    -0.557000000    -2.023000000
H     5.414000000    -1.937000000    -2.547000000
O     7.892000000     1.226000000     0.650000000
H     8.812000000     1.385000000     0.436000000
H     7.451000000     1.196000000    -0.199000000
O    10.228000000     1.622000000    -3.162000000
H    10.547000000     0.725000000    -3.269000000
H     9.392000000     1.635000000    -3.628000000
O     8.669000000    -2.384000000    -1.608000000
H     7.779000000    -2.354000000    -1.957000000
H     8.976000000    -3.269000000    -1.810000000
O     5.582000000     0.478000000    -4.997000000
H     5.119000000     1.111000000    -5.548000000
H     5.193000000     0.587000000    -4.129000000
O     6.508000000     3.532000000     1.375000000
H     6.941000000     2.704000000     1.586000000
H     5.693000000     3.273000000     0.945000000
O     3.847000000     3.142000000     0.571000000
H     3.762000000     2.803000000    -0.320000000
H     3.656000000     2.391000000     1.133000000
O     5.771000000     7.023000000    -3.998000000
H     5.654000000     7.969000000    -3.911000000
H     5.204000000     6.648000000    -3.324000000
O     7.243000000     4.781000000    -2.497000000
H     7.525000000     5.276000000    -1.728000000
H     6.368000000     5.117000000    -2.691000000
