215
-1449.00264
C     1.308000000    -4.378000000    -3.015000000
H     0.477000000    -4.522000000    -3.700000000
C     1.320000000    -4.292000000    -1.646000000
C     2.524000000    -4.109000000    -0.956000000
H     2.548000000    -4.093000000     0.130000000
C     0.058000000    -4.104000000    -0.865000000
O    -1.040000000    -4.683000000    -1.600000000
H    -0.142000000    -3.033000000    -0.711000000
O     0.108000000    -4.884000000     0.356000000
C    -0.425000000    -4.310000000     1.425000000
C     0.455000000    -3.816000000     2.363000000
H     1.518000000    -3.982000000     2.207000000
C    -0.053000000    -3.355000000     3.628000000
O     0.849000000    -2.692000000     4.392000000
C    -1.377000000    -3.081000000     3.752000000
C    -1.943000000    -2.118000000     4.881000000
H    -3.001000000    -2.341000000     5.032000000
C    -1.932000000    -0.625000000     4.432000000
C    -3.138000000    -0.049000000     3.987000000
H    -4.026000000    -0.675000000     3.968000000
H    -1.393000000    -2.256000000     5.815000000
C    -2.275000000    -3.606000000     2.799000000
H    -3.358000000    -3.584000000     2.897000000
C    -1.803000000    -4.300000000     1.710000000
C    -2.764000000    -4.795000000     0.659000000
H    -3.757000000    -4.926000000     1.092000000
H    -2.392000000    -5.726000000     0.227000000
C    -3.119000000    -3.901000000    -0.508000000
C    -4.188000000    -2.929000000    -0.390000000
H    -4.710000000    -2.837000000     0.559000000
C    -2.225000000    -3.979000000    -1.552000000
C    -2.287000000    -2.810000000    -2.415000000
H    -1.595000000    -2.747000000    -3.251000000
C    -3.357000000    -1.902000000    -2.375000000
O    -3.395000000    -0.937000000    -3.408000000
C    -2.977000000     0.370000000    -2.984000000
C    -2.005000000     1.063000000    -4.007000000
C    -1.946000000     2.498000000    -4.134000000
H    -2.641000000     3.207000000    -3.693000000
C    -1.074000000     0.279000000    -4.648000000
H    -1.075000000    -0.804000000    -4.558000000
O    -4.108000000     1.190000000    -2.741000000
H    -2.321000000     0.331000000    -2.101000000
C    -4.391000000    -1.986000000    -1.395000000
C    -5.509000000    -0.965000000    -1.259000000
H    -6.397000000    -1.349000000    -0.751000000
H    -5.947000000    -0.688000000    -2.220000000
C    -5.014000000     0.313000000    -0.670000000
C    -5.031000000     0.473000000     0.732000000
H    -5.360000000    -0.342000000     1.372000000
C    -4.443000000     1.321000000    -1.423000000
C    -3.842000000     2.421000000    -0.870000000
H    -3.367000000     3.115000000    -1.559000000
C    -3.792000000     2.563000000     0.532000000
O    -3.014000000     3.596000000     1.043000000
C    -1.702000000     3.351000000     1.677000000
C    -0.707000000     4.355000000     1.252000000
C    -0.951000000     5.146000000     0.129000000
H    -1.811000000     5.097000000    -0.534000000
C     0.601000000     4.293000000     1.795000000
H     0.822000000     3.513000000     2.519000000
O    -1.984000000     3.300000000     3.116000000
H    -1.537000000     2.321000000     1.328000000
C    -4.520000000     1.629000000     1.297000000
C    -4.535000000     1.727000000     2.796000000
H    -5.380000000     1.258000000     3.305000000
H    -4.511000000     2.755000000     3.164000000
C    -3.269000000     1.243000000     3.534000000
C    -2.067000000     1.968000000     3.509000000
C    -0.921000000     1.481000000     4.110000000
H    -0.076000000     2.163000000     4.143000000
C    -0.841000000     0.154000000     4.491000000
O     0.341000000    -0.343000000     4.962000000
C     1.061000000    -1.279000000     4.053000000
H     0.668000000    -1.137000000     3.035000000
C     2.523000000    -0.872000000     3.926000000
C     3.515000000    -1.804000000     3.674000000
H     3.237000000    -2.824000000     3.422000000
C     3.003000000     0.384000000     4.289000000
H     2.251000000     1.091000000     4.630000000
C     4.325000000     0.752000000     4.351000000
O     4.680000000     1.953000000     4.869000000
C     5.313000000    -0.144000000     3.938000000
H     6.345000000     0.145000000     4.121000000
C     4.890000000    -1.445000000     3.662000000
O     5.838000000    -2.456000000     3.455000000
C     5.652000000    -3.438000000     2.476000000
C     5.309000000    -3.069000000     1.205000000
H     5.327000000    -2.013000000     0.948000000
C     5.730000000    -4.804000000     2.781000000
H     5.998000000    -5.077000000     3.798000000
C     5.642000000    -5.830000000     1.834000000
H     5.759000000    -6.890000000     2.047000000
C     5.377000000    -5.469000000     0.513000000
H     5.377000000    -6.237000000    -0.256000000
C     5.187000000    -4.077000000     0.251000000
O     4.921000000    -3.762000000    -0.994000000
C     3.675000000    -3.971000000    -1.627000000
C     3.703000000    -4.040000000    -3.017000000
H     4.533000000    -3.900000000    -3.705000000
C     2.496000000    -4.238000000    -3.650000000
O     2.535000000    -4.259000000    -4.986000000
C     1.870000000    -3.395000000    -5.818000000
C     1.807000000    -2.051000000    -5.592000000
H     2.338000000    -1.629000000    -4.742000000
C     1.209000000    -4.014000000    -6.855000000
H     1.219000000    -5.080000000    -7.071000000
C     0.451000000    -3.171000000    -7.684000000
H     0.057000000    -3.535000000    -8.629000000
C     0.326000000    -1.801000000    -7.454000000
H    -0.093000000    -1.128000000    -8.198000000
C     0.995000000    -1.235000000    -6.391000000
O     0.931000000     0.187000000    -6.081000000
C    -0.166000000     0.861000000    -5.547000000
C    -0.113000000     2.211000000    -5.808000000
H     0.612000000     2.616000000    -6.510000000
C    -0.917000000     3.038000000    -5.007000000
O    -0.799000000     4.370000000    -5.201000000
C    -1.128000000     5.458000000    -4.411000000
C    -0.531000000     5.661000000    -3.219000000
H     0.348000000     5.079000000    -2.955000000
C    -2.102000000     6.401000000    -4.873000000
H    -2.594000000     6.260000000    -5.831000000
C    -2.468000000     7.440000000    -4.016000000
H    -3.266000000     8.121000000    -4.300000000
C    -1.821000000     7.614000000    -2.829000000
H    -2.188000000     8.420000000    -2.199000000
C    -0.824000000     6.741000000    -2.410000000
O    -0.138000000     6.927000000    -1.244000000
C     0.009000000     6.101000000    -0.207000000
C     1.226000000     6.157000000     0.426000000
H     2.009000000     6.867000000     0.172000000
C     1.537000000     5.228000000     1.408000000
O     2.811000000     5.210000000     1.947000000
C     2.946000000     4.706000000     3.217000000
C     2.382000000     5.346000000     4.351000000
H     1.795000000     6.250000000     4.212000000
C     2.520000000     4.802000000     5.603000000
H     2.056000000     5.262000000     6.472000000
C     3.337000000     3.673000000     5.751000000
H     3.477000000     3.341000000     6.777000000
C     3.889000000     3.068000000     4.631000000
C     3.736000000     3.583000000     3.373000000
H     4.280000000     3.080000000     2.577000000
C     1.135000000     1.721000000    -2.340000000
H     0.989000000     2.679000000    -2.831000000
C     0.249000000     1.280000000    -1.392000000
H    -0.587000000     1.876000000    -1.036000000
C     0.510000000     0.136000000    -0.766000000
H    -0.283000000    -0.208000000    -0.190000000
C     1.538000000    -0.717000000    -1.173000000
H     1.622000000    -1.652000000    -0.624000000
C     2.358000000    -0.326000000    -2.194000000
H     3.210000000    -0.959000000    -2.428000000
C     2.210000000     0.957000000    -2.735000000
C     3.145000000     1.490000000    -3.758000000
O     3.981000000     0.738000000    -4.206000000
O     3.326000000     2.750000000    -3.723000000
O     5.739000000    -1.771000000    -6.624000000
H     4.948000000    -1.243000000    -6.517000000
H     5.509000000    -2.415000000    -7.294000000
O     6.180000000    -0.378000000    -3.001000000
H     6.983000000    -0.465000000    -3.516000000
H     5.521000000    -0.091000000    -3.633000000
O     5.816000000     2.795000000    -8.319000000
H     4.886000000     2.737000000    -8.539000000
H     6.091000000     3.644000000    -8.665000000
O     6.654000000     0.223000000    -9.001000000
H     6.371000000    -0.457000000    -8.390000000
H     6.252000000     1.026000000    -8.669000000
O     7.585000000     1.754000000     0.284000000
H     7.085000000     2.564000000     0.385000000
H     6.961000000     1.133000000    -0.092000000
O     3.093000000     5.393000000    -3.445000000
H     3.020000000     4.455000000    -3.622000000
H     4.036000000     5.561000000    -3.429000000
O     2.102000000     7.660000000    -4.734000000
H     2.115000000     7.097000000    -3.960000000
H     2.104000000     7.051000000    -5.473000000
O     6.095000000     5.099000000    -5.961000000
H     7.000000000     5.130000000    -6.271000000
H     6.170000000     4.978000000    -5.015000000
O     6.595000000     1.537000000    -5.805000000
H     6.625000000     1.913000000    -6.685000000
H     5.675000000     1.307000000    -5.674000000
O     1.939000000     6.062000000    -6.751000000
H     1.161000000     5.973000000    -7.301000000
H     2.301000000     5.178000000    -6.702000000
O     5.172000000     0.100000000    -0.504000000
H     5.493000000     0.072000000    -1.405000000
H     4.428000000    -0.503000000    -0.496000000
O     8.255000000    -1.073000000    -5.034000000
H     7.376000000    -1.197000000    -5.391000000
H     8.841000000    -1.330000000    -5.747000000
O     4.018000000     2.598000000    -0.746000000
H     3.536000000     2.520000000    -1.569000000
H     4.275000000     1.702000000    -0.532000000
O     4.057000000     0.650000000    -7.021000000
H     3.725000000     1.537000000    -7.159000000
H     3.849000000     0.455000000    -6.107000000
O     4.779000000     5.391000000    -0.657000000
H     4.402000000     4.521000000    -0.522000000
H     4.222000000     5.792000000    -1.324000000
O     2.474000000     0.034000000    -9.925000000
H     2.415000000    -0.354000000    -9.052000000
H     3.012000000    -0.580000000   -10.424000000
O     3.612000000     3.645000000    -6.216000000
H     3.454000000     3.290000000    -5.341000000
H     4.437000000     4.124000000    -6.135000000
O     5.896000000     4.224000000    -3.460000000
H     6.645000000     3.687000000    -3.203000000
H     5.134000000     3.666000000    -3.299000000
O     8.106000000     2.693000000    -3.849000000
H     7.584000000     2.168000000    -4.456000000
H     8.821000000     2.113000000    -3.585000000
