215
-1446.68292
C     1.148000000    -4.293000000    -2.596000000
H     0.345000000    -3.885000000    -3.204000000
C     1.018000000    -4.521000000    -1.238000000
C     2.047000000    -5.024000000    -0.429000000
H     1.936000000    -5.171000000     0.643000000
C    -0.280000000    -4.157000000    -0.603000000
O    -1.495000000    -4.510000000    -1.470000000
H    -0.339000000    -3.068000000    -0.460000000
O    -0.434000000    -4.755000000     0.691000000
C    -0.983000000    -4.126000000     1.680000000
C    -0.073000000    -3.534000000     2.549000000
H     0.967000000    -3.844000000     2.501000000
C    -0.514000000    -2.819000000     3.618000000
O     0.403000000    -2.229000000     4.400000000
C    -1.901000000    -2.426000000     3.659000000
C    -2.449000000    -1.548000000     4.741000000
H    -3.492000000    -1.841000000     4.880000000
C    -2.278000000    -0.084000000     4.296000000
C    -3.324000000     0.546000000     3.576000000
H    -4.199000000    -0.054000000     3.336000000
H    -2.017000000    -1.593000000     5.743000000
C    -2.812000000    -2.967000000     2.764000000
H    -3.854000000    -2.664000000     2.835000000
C    -2.333000000    -3.774000000     1.687000000
C    -3.412000000    -4.340000000     0.696000000
H    -4.368000000    -4.364000000     1.223000000
H    -3.157000000    -5.366000000     0.422000000
C    -3.494000000    -3.520000000    -0.527000000
C    -4.341000000    -2.437000000    -0.643000000
H    -5.164000000    -2.302000000     0.054000000
C    -2.481000000    -3.582000000    -1.486000000
C    -2.493000000    -2.776000000    -2.610000000
H    -1.713000000    -2.999000000    -3.334000000
C    -3.392000000    -1.698000000    -2.708000000
O    -3.138000000    -0.789000000    -3.734000000
C    -2.425000000     0.368000000    -3.456000000
C    -1.490000000     0.696000000    -4.595000000
C    -1.257000000     2.059000000    -4.965000000
H    -1.757000000     2.837000000    -4.394000000
C    -0.726000000    -0.279000000    -5.272000000
H    -0.976000000    -1.286000000    -4.949000000
O    -3.328000000     1.490000000    -3.208000000
H    -1.852000000     0.328000000    -2.519000000
C    -4.381000000    -1.566000000    -1.757000000
C    -5.321000000    -0.368000000    -1.775000000
H    -6.279000000    -0.651000000    -1.334000000
H    -5.519000000    -0.148000000    -2.826000000
C    -4.614000000     0.867000000    -1.131000000
C    -4.841000000     1.240000000     0.155000000
H    -5.493000000     0.621000000     0.766000000
C    -3.747000000     1.745000000    -1.888000000
C    -3.166000000     2.890000000    -1.281000000
H    -2.420000000     3.429000000    -1.859000000
C    -3.424000000     3.169000000     0.064000000
O    -2.606000000     4.100000000     0.670000000
C    -1.449000000     3.695000000     1.387000000
C    -0.205000000     4.544000000     1.063000000
C     0.037000000     4.886000000    -0.310000000
H    -0.736000000     4.721000000    -1.057000000
C     0.765000000     4.824000000     2.002000000
H     0.712000000     4.395000000     2.999000000
O    -1.779000000     3.738000000     2.851000000
H    -1.146000000     2.673000000     1.114000000
C    -4.208000000     2.301000000     0.813000000
C    -4.372000000     2.480000000     2.320000000
H    -5.290000000     1.958000000     2.597000000
H    -4.586000000     3.519000000     2.579000000
C    -3.298000000     1.868000000     3.189000000
C    -2.086000000     2.541000000     3.493000000
C    -0.988000000     1.902000000     4.183000000
H    -0.082000000     2.493000000     4.288000000
C    -1.146000000     0.632000000     4.585000000
O    -0.088000000    -0.038000000     5.126000000
C     0.631000000    -0.772000000     4.085000000
H     0.188000000    -0.461000000     3.127000000
C     2.094000000    -0.489000000     4.075000000
C     2.960000000    -1.381000000     3.488000000
H     2.619000000    -2.350000000     3.132000000
C     2.599000000     0.705000000     4.658000000
H     1.941000000     1.396000000     5.179000000
C     3.957000000     0.878000000     4.599000000
O     4.504000000     2.043000000     5.112000000
C     4.797000000     0.017000000     3.878000000
H     5.846000000     0.269000000     3.747000000
C     4.361000000    -1.169000000     3.365000000
O     5.200000000    -1.944000000     2.718000000
C     4.889000000    -3.247000000     2.486000000
C     4.838000000    -3.735000000     1.168000000
H     4.787000000    -3.138000000     0.261000000
C     4.690000000    -4.159000000     3.563000000
H     4.727000000    -3.674000000     4.535000000
C     4.338000000    -5.473000000     3.358000000
H     4.097000000    -6.171000000     4.155000000
C     4.255000000    -5.922000000     2.102000000
H     3.919000000    -6.939000000     1.918000000
C     4.537000000    -5.111000000     1.015000000
O     4.363000000    -5.594000000    -0.215000000
C     3.316000000    -5.235000000    -1.003000000
C     3.524000000    -4.987000000    -2.336000000
H     4.501000000    -5.175000000    -2.775000000
C     2.439000000    -4.500000000    -3.104000000
O     2.627000000    -4.435000000    -4.455000000
C     1.692000000    -3.955000000    -5.333000000
C     1.762000000    -2.630000000    -5.620000000
H     2.419000000    -1.955000000    -5.078000000
C     0.964000000    -4.902000000    -6.104000000
H     0.986000000    -5.980000000    -5.965000000
C     0.156000000    -4.332000000    -7.144000000
H    -0.483000000    -5.025000000    -7.685000000
C     0.136000000    -2.975000000    -7.391000000
H    -0.527000000    -2.586000000    -8.159000000
C     1.006000000    -2.188000000    -6.693000000
O     1.003000000    -0.837000000    -6.936000000
C     0.252000000     0.086000000    -6.215000000
C     0.412000000     1.470000000    -6.525000000
H     1.081000000     1.682000000    -7.355000000
C    -0.301000000     2.464000000    -5.870000000
O    -0.010000000     3.808000000    -5.940000000
C    -0.174000000     4.806000000    -5.022000000
C     0.768000000     4.979000000    -4.035000000
H     1.642000000     4.343000000    -3.925000000
C    -1.319000000     5.582000000    -5.064000000
H    -1.915000000     5.548000000    -5.972000000
C    -1.581000000     6.431000000    -3.979000000
H    -2.501000000     7.007000000    -3.914000000
C    -0.672000000     6.595000000    -2.983000000
H    -0.748000000     7.268000000    -2.133000000
C     0.535000000     5.867000000    -2.958000000
O     1.397000000     6.050000000    -1.943000000
C     1.176000000     5.640000000    -0.635000000
C     2.151000000     6.013000000     0.292000000
H     3.113000000     6.426000000    -0.002000000
C     1.853000000     5.612000000     1.645000000
O     2.854000000     5.855000000     2.570000000
C     3.180000000     5.125000000     3.752000000
C     2.758000000     5.760000000     4.967000000
H     2.329000000     6.757000000     4.897000000
C     2.996000000     5.152000000     6.160000000
H     2.682000000     5.636000000     7.082000000
C     3.697000000     3.960000000     6.163000000
H     3.852000000     3.502000000     7.136000000
C     3.931000000     3.302000000     4.957000000
C     3.669000000     3.861000000     3.737000000
H     3.824000000     3.349000000     2.791000000
C     2.021000000     1.758000000    -0.521000000
H     2.391000000     2.693000000    -0.107000000
C     0.925000000     1.180000000     0.162000000
H     0.576000000     1.700000000     1.050000000
C     0.282000000    -0.013000000    -0.253000000
H    -0.561000000    -0.440000000     0.168000000
C     0.738000000    -0.615000000    -1.423000000
H     0.260000000    -1.516000000    -1.798000000
C     1.818000000    -0.087000000    -2.061000000
H     2.237000000    -0.592000000    -2.928000000
C     2.522000000     1.069000000    -1.623000000
C     3.399000000     1.811000000    -2.527000000
O     3.461000000     1.527000000    -3.744000000
O     4.270000000     2.504000000    -2.040000000
O     4.711000000    -1.875000000    -3.433000000
H     4.944000000    -2.614000000    -3.995000000
H     4.553000000    -1.152000000    -4.041000000
O     7.110000000     2.106000000    -2.311000000
H     6.223000000     2.428000000    -2.151000000
H     7.297000000     2.357000000    -3.215000000
O     3.199000000     4.861000000    -7.572000000
H     3.457000000     4.585000000    -6.693000000
H     3.948000000     5.361000000    -7.896000000
O     8.894000000    -0.614000000    -3.194000000
H     8.133000000    -0.155000000    -3.549000000
H     9.508000000     0.083000000    -2.963000000
O     4.000000000     4.946000000    -2.852000000
H     4.231000000     4.129000000    -2.409000000
H     3.046000000     4.912000000    -2.934000000
O     4.037000000     3.881000000    -5.415000000
H     3.806000000     3.087000000    -4.933000000
H     4.162000000     4.545000000    -4.736000000
O     7.832000000     3.452000000    -4.716000000
H     8.724000000     3.366000000    -4.380000000
H     7.622000000     4.379000000    -4.604000000
O     7.200000000    -2.986000000    -1.954000000
H     8.112000000    -2.697000000    -1.926000000
H     6.706000000    -2.199000000    -2.184000000
O     9.597000000     2.840000000    -0.909000000
H    10.032000000     2.144000000    -1.402000000
H     8.733000000     2.484000000    -0.703000000
O     5.699000000    -0.251000000    -1.261000000
H     5.740000000     0.572000000    -1.749000000
H     5.040000000    -0.770000000    -1.723000000
O     7.504000000    -1.278000000     0.580000000
H     7.062000000    -0.713000000    -0.053000000
H     7.146000000    -2.150000000     0.414000000
O     4.354000000    -0.138000000    -5.678000000
H     3.982000000     0.467000000    -5.036000000
H     4.163000000     0.266000000    -6.525000000
O     6.329000000     6.624000000    -1.963000000
H     6.757000000     6.948000000    -2.755000000
H     5.560000000     6.152000000    -2.283000000
O     6.251000000     2.664000000    -6.988000000
H     6.892000000     2.649000000    -6.277000000
H     5.692000000     3.415000000    -6.789000000
O     3.223000000     7.165000000    -4.335000000
H     3.777000000     6.573000000    -3.825000000
H     3.651000000     8.018000000    -4.258000000
O     6.636000000     0.510000000    -4.539000000
H     5.836000000     0.339000000    -5.036000000
H     7.299000000     0.692000000    -5.206000000
O     5.050000000     0.474000000    -8.415000000
H     5.118000000     1.334000000    -8.000000000
H     4.274000000     0.538000000    -8.971000000
O     5.599000000     2.517000000     0.373000000
H     5.774000000     1.605000000     0.606000000
H     5.060000000     2.463000000    -0.417000000
O     6.916000000     4.087000000     2.327000000
H     7.203000000     4.996000000     2.241000000
H     6.241000000     3.985000000     1.656000000
