215
-1446.31753
C     1.646000000    -4.517000000    -2.610000000
H     0.748000000    -4.637000000    -3.211000000
C     1.607000000    -4.325000000    -1.217000000
C     2.765000000    -4.064000000    -0.509000000
H     2.766000000    -3.833000000     0.553000000
C     0.262000000    -4.183000000    -0.476000000
O    -0.844000000    -4.707000000    -1.181000000
H    -0.028000000    -3.129000000    -0.352000000
O     0.416000000    -4.771000000     0.853000000
C    -0.242000000    -4.199000000     1.901000000
C     0.558000000    -3.530000000     2.772000000
H     1.638000000    -3.653000000     2.751000000
C     0.023000000    -2.720000000     3.775000000
O     0.833000000    -2.021000000     4.613000000
C    -1.408000000    -2.630000000     3.862000000
C    -2.057000000    -1.771000000     4.886000000
H    -3.074000000    -2.139000000     5.030000000
C    -2.092000000    -0.281000000     4.410000000
C    -3.328000000     0.136000000     3.826000000
H    -4.200000000    -0.501000000     3.706000000
H    -1.477000000    -1.863000000     5.807000000
C    -2.269000000    -3.298000000     2.946000000
H    -3.342000000    -3.247000000     3.111000000
C    -1.653000000    -4.103000000     1.986000000
C    -2.624000000    -4.834000000     1.109000000
H    -3.542000000    -5.079000000     1.646000000
H    -2.182000000    -5.772000000     0.768000000
C    -2.916000000    -4.032000000    -0.143000000
C    -4.050000000    -3.167000000    -0.251000000
H    -4.783000000    -3.087000000     0.548000000
C    -2.004000000    -3.965000000    -1.194000000
C    -2.146000000    -3.106000000    -2.249000000
H    -1.436000000    -3.137000000    -3.071000000
C    -3.254000000    -2.314000000    -2.366000000
O    -3.287000000    -1.410000000    -3.433000000
C    -2.814000000    -0.060000000    -3.221000000
C    -1.826000000     0.437000000    -4.285000000
C    -1.583000000     1.818000000    -4.511000000
H    -2.133000000     2.607000000    -4.005000000
C    -1.012000000    -0.499000000    -4.910000000
H    -1.113000000    -1.533000000    -4.589000000
O    -3.943000000     0.792000000    -3.036000000
H    -2.223000000    -0.114000000    -2.295000000
C    -4.185000000    -2.295000000    -1.327000000
C    -5.255000000    -1.286000000    -1.362000000
H    -6.071000000    -1.645000000    -0.730000000
H    -5.468000000    -1.195000000    -2.429000000
C    -4.813000000     0.052000000    -0.878000000
C    -4.975000000     0.333000000     0.471000000
H    -5.355000000    -0.504000000     1.051000000
C    -4.276000000     1.045000000    -1.712000000
C    -3.753000000     2.182000000    -1.171000000
H    -3.213000000     2.875000000    -1.812000000
C    -3.927000000     2.487000000     0.149000000
O    -3.333000000     3.584000000     0.659000000
C    -1.992000000     3.359000000     1.242000000
C    -0.748000000     4.122000000     0.666000000
C    -0.772000000     4.707000000    -0.559000000
H    -1.660000000     4.603000000    -1.177000000
C     0.369000000     4.405000000     1.499000000
H     0.382000000     3.913000000     2.469000000
O    -2.141000000     3.492000000     2.666000000
H    -1.725000000     2.306000000     1.070000000
C    -4.616000000     1.567000000     0.972000000
C    -4.746000000     1.823000000     2.497000000
H    -5.554000000     1.200000000     2.887000000
H    -4.940000000     2.850000000     2.815000000
C    -3.493000000     1.454000000     3.260000000
C    -2.302000000     2.301000000     3.355000000
C    -1.170000000     1.919000000     4.078000000
H    -0.256000000     2.490000000     4.219000000
C    -1.096000000     0.629000000     4.614000000
O     0.082000000     0.208000000     5.156000000
C     1.003000000    -0.624000000     4.380000000
H     0.817000000    -0.492000000     3.303000000
C     2.450000000    -0.136000000     4.526000000
C     3.450000000    -0.941000000     3.958000000
H     3.218000000    -1.941000000     3.600000000
C     2.741000000     1.114000000     5.074000000
H     1.902000000     1.777000000     5.269000000
C     4.064000000     1.543000000     5.067000000
O     4.269000000     2.809000000     5.394000000
C     4.989000000     0.824000000     4.372000000
H     5.962000000     1.283000000     4.217000000
C     4.728000000    -0.384000000     3.863000000
O     5.832000000    -1.013000000     3.320000000
C     5.685000000    -2.282000000     2.771000000
C     5.732000000    -2.409000000     1.359000000
H     5.855000000    -1.509000000     0.762000000
C     5.327000000    -3.370000000     3.502000000
H     5.218000000    -3.308000000     4.582000000
C     5.261000000    -4.685000000     2.949000000
H     5.035000000    -5.582000000     3.520000000
C     5.217000000    -4.770000000     1.566000000
H     5.006000000    -5.755000000     1.158000000
C     5.345000000    -3.623000000     0.751000000
O     5.122000000    -3.655000000    -0.618000000
C     3.941000000    -3.985000000    -1.228000000
C     3.965000000    -4.066000000    -2.634000000
H     4.907000000    -4.030000000    -3.175000000
C     2.800000000    -4.331000000    -3.372000000
O     2.818000000    -4.675000000    -4.716000000
C     1.889000000    -4.171000000    -5.590000000
C     1.752000000    -2.796000000    -5.516000000
H     2.421000000    -2.184000000    -4.917000000
C     1.246000000    -4.955000000    -6.484000000
H     1.512000000    -6.007000000    -6.545000000
C     0.312000000    -4.382000000    -7.367000000
H    -0.287000000    -5.023000000    -8.008000000
C     0.181000000    -3.040000000    -7.304000000
H    -0.597000000    -2.606000000    -7.926000000
C     0.866000000    -2.274000000    -6.424000000
O     0.804000000    -0.899000000    -6.435000000
C    -0.140000000    -0.090000000    -5.846000000
C    -0.016000000     1.255000000    -6.244000000
H     0.708000000     1.511000000    -7.013000000
C    -0.703000000     2.205000000    -5.482000000
O    -0.569000000     3.515000000    -5.971000000
C    -0.970000000     4.570000000    -5.244000000
C    -0.420000000     4.856000000    -3.988000000
H     0.444000000     4.238000000    -3.760000000
C    -2.051000000     5.350000000    -5.758000000
H    -2.469000000     5.127000000    -6.737000000
C    -2.535000000     6.331000000    -4.881000000
H    -3.419000000     6.885000000    -5.187000000
C    -2.002000000     6.619000000    -3.599000000
H    -2.361000000     7.380000000    -2.911000000
C    -0.899000000     5.941000000    -3.165000000
O    -0.178000000     6.433000000    -2.039000000
C     0.117000000     5.746000000    -0.939000000
C     1.191000000     6.053000000    -0.071000000
H     1.833000000     6.861000000    -0.411000000
C     1.372000000     5.233000000     1.050000000
O     2.616000000     5.305000000     1.662000000
C     2.689000000     5.180000000     3.060000000
C     2.714000000     6.345000000     3.847000000
H     2.300000000     7.188000000     3.301000000
C     2.879000000     6.156000000     5.180000000
H     2.639000000     6.918000000     5.917000000
C     3.337000000     4.950000000     5.722000000
H     3.413000000     4.777000000     6.792000000
C     3.551000000     3.868000000     4.876000000
C     3.296000000     4.055000000     3.559000000
H     3.550000000     3.230000000     2.899000000
C     2.232000000     2.202000000    -0.776000000
H     2.816000000     3.060000000    -0.451000000
C     1.597000000     1.341000000     0.159000000
H     1.653000000     1.671000000     1.193000000
C     0.840000000     0.265000000    -0.266000000
H     0.185000000    -0.327000000     0.438000000
C     0.903000000    -0.054000000    -1.618000000
H     0.287000000    -0.868000000    -1.992000000
C     1.650000000     0.682000000    -2.464000000
H     1.650000000     0.337000000    -3.494000000
C     2.372000000     1.868000000    -2.130000000
C     3.161000000     2.672000000    -3.136000000
O     3.517000000     2.082000000    -4.159000000
O     3.345000000     3.856000000    -3.002000000
O     4.940000000    -1.312000000    -6.488000000
H     5.139000000    -2.246000000    -6.425000000
H     4.278000000    -1.254000000    -7.177000000
O     5.994000000     2.189000000    -5.472000000
H     5.819000000     3.103000000    -5.247000000
H     5.258000000     1.705000000    -5.097000000
O     2.918000000     3.440000000    -9.337000000
H     2.766000000     3.246000000    -8.412000000
H     2.042000000     3.499000000    -9.717000000
O     2.646000000     6.523000000    -3.108000000
H     2.847000000     5.615000000    -2.884000000
H     1.742000000     6.646000000    -2.818000000
O     5.330000000     4.707000000    -5.058000000
H     5.316000000     5.664000000    -5.040000000
H     4.582000000     4.447000000    -4.520000000
O     5.305000000     7.381000000    -3.674000000
H     5.919000000     7.160000000    -2.974000000
H     4.454000000     7.093000000    -3.346000000
O     2.441000000     3.228000000    -6.586000000
H     2.432000000     4.013000000    -6.040000000
H     2.801000000     2.546000000    -6.019000000
O     8.837000000     4.206000000    -0.033000000
H     8.961000000     3.731000000     0.789000000
H     8.012000000     3.868000000    -0.383000000
O     5.516000000     6.316000000     0.153000000
H     5.401000000     6.025000000     1.058000000
H     5.310000000     5.544000000    -0.374000000
O     6.346000000     2.897000000    -8.056000000
H     5.476000000     2.674000000    -8.385000000
H     6.327000000     2.639000000    -7.134000000
O     4.235000000    -0.581000000    -4.095000000
H     3.922000000     0.317000000    -4.204000000
H     4.129000000    -0.978000000    -4.960000000
O     7.670000000     3.303000000    -3.340000000
H     7.678000000     2.701000000    -4.085000000
H     8.087000000     4.099000000    -3.671000000
O     5.836000000     4.033000000    -1.379000000
H     6.461000000     3.486000000    -1.856000000
H     5.066000000     4.068000000    -1.947000000
O     2.064000000     6.293000000    -5.691000000
H     1.219000000     6.742000000    -5.722000000
H     2.516000000     6.686000000    -4.945000000
O     4.199000000     6.306000000    -7.485000000
H     4.847000000     5.819000000    -6.976000000
H     3.398000000     6.257000000    -6.963000000
O     0.555000000     4.709000000    -8.530000000
H     0.587000000     5.659000000    -8.421000000
H     0.975000000     4.363000000    -7.743000000
O     6.188000000    -1.383000000    -2.158000000
H     5.494000000    -1.276000000    -2.808000000
H     5.740000000    -1.722000000    -1.383000000
O     6.567000000     2.490000000     1.201000000
H     6.172000000     1.779000000     0.697000000
H     6.237000000     3.288000000     0.789000000
O     5.246000000     0.998000000    -0.440000000
H     5.567000000     0.675000000    -1.282000000
H     4.335000000     1.240000000    -0.608000000
