215
-1450.26534
C    -5.333000000     0.389000000    -1.254000000
H    -5.053000000     1.020000000    -2.093000000
C    -5.004000000     0.693000000     0.044000000
C    -5.490000000    -0.179000000     1.112000000
H    -5.104000000     0.008000000     2.111000000
C    -4.171000000     1.903000000     0.304000000
O    -4.264000000     2.924000000    -0.737000000
H    -3.144000000     1.509000000     0.279000000
O    -4.497000000     2.530000000     1.595000000
C    -3.330000000     2.709000000     2.322000000
C    -2.863000000     1.675000000     3.185000000
H    -3.427000000     0.746000000     3.156000000
C    -1.677000000     1.782000000     3.935000000
O    -1.371000000     0.647000000     4.622000000
C    -0.915000000     2.919000000     3.819000000
C     0.288000000     3.162000000     4.664000000
H     0.373000000     4.225000000     4.898000000
C     1.476000000     2.644000000     3.931000000
C     2.162000000     3.380000000     3.021000000
H     1.862000000     4.410000000     2.850000000
H     0.159000000     2.660000000     5.625000000
C    -1.223000000     3.898000000     2.844000000
H    -0.594000000     4.747000000     2.592000000
C    -2.442000000     3.813000000     2.168000000
C    -2.763000000     4.834000000     1.133000000
H    -2.442000000     5.863000000     1.309000000
H    -3.841000000     5.004000000     1.111000000
C    -2.283000000     4.356000000    -0.261000000
C    -1.030000000     4.797000000    -0.714000000
H    -0.426000000     5.457000000    -0.097000000
C    -3.067000000     3.546000000    -1.097000000
C    -2.558000000     3.148000000    -2.336000000
H    -3.076000000     2.362000000    -2.881000000
C    -1.296000000     3.593000000    -2.767000000
O    -0.718000000     2.946000000    -3.870000000
C     0.349000000     1.993000000    -3.640000000
C     0.235000000     0.783000000    -4.486000000
C     1.347000000     0.036000000    -4.930000000
H     2.341000000     0.466000000    -4.832000000
C    -1.053000000     0.186000000    -4.514000000
H    -1.867000000     0.765000000    -4.086000000
O     1.703000000     2.518000000    -3.785000000
H     0.260000000     1.655000000    -2.597000000
C    -0.520000000     4.436000000    -2.032000000
C     0.830000000     5.050000000    -2.469000000
H     0.938000000     5.988000000    -1.921000000
H     0.904000000     5.247000000    -3.541000000
C     2.007000000     4.115000000    -2.003000000
C     2.634000000     4.402000000    -0.764000000
H     2.318000000     5.244000000    -0.153000000
C     2.332000000     2.960000000    -2.689000000
C     3.346000000     2.147000000    -2.168000000
H     3.668000000     1.287000000    -2.751000000
C     3.951000000     2.443000000    -0.955000000
O     4.826000000     1.552000000    -0.471000000
C     4.181000000     0.585000000     0.310000000
C     4.595000000    -0.809000000    -0.056000000
C     4.893000000    -1.070000000    -1.428000000
H     4.936000000    -0.355000000    -2.245000000
C     4.392000000    -1.915000000     0.771000000
H     4.028000000    -1.669000000     1.765000000
O     4.490000000     0.836000000     1.697000000
H     3.098000000     0.629000000     0.123000000
C     3.527000000     3.518000000    -0.157000000
C     3.924000000     3.722000000     1.277000000
H     3.851000000     4.762000000     1.600000000
H     4.998000000     3.532000000     1.327000000
C     3.195000000     2.820000000     2.299000000
C     3.527000000     1.475000000     2.430000000
C     2.895000000     0.716000000     3.450000000
H     3.188000000    -0.305000000     3.678000000
C     1.887000000     1.330000000     4.186000000
O     1.060000000     0.430000000     4.814000000
C    -0.100000000     0.007000000     4.188000000
H     0.031000000     0.198000000     3.113000000
C    -0.261000000    -1.465000000     4.358000000
C    -1.329000000    -2.116000000     3.721000000
H    -2.050000000    -1.563000000     3.125000000
C     0.809000000    -2.270000000     4.786000000
H     1.743000000    -1.846000000     5.146000000
C     0.651000000    -3.663000000     4.804000000
O     1.677000000    -4.432000000     5.126000000
C    -0.484000000    -4.315000000     4.337000000
H    -0.655000000    -5.386000000     4.264000000
C    -1.491000000    -3.530000000     3.779000000
O    -2.517000000    -4.102000000     3.097000000
C    -3.849000000    -3.815000000     3.266000000
C    -4.673000000    -3.132000000     2.369000000
H    -4.266000000    -2.954000000     1.377000000
C    -4.386000000    -4.068000000     4.521000000
H    -3.803000000    -4.592000000     5.274000000
C    -5.662000000    -3.652000000     4.910000000
H    -5.989000000    -3.725000000     5.944000000
C    -6.395000000    -2.896000000     4.000000000
H    -7.384000000    -2.560000000     4.299000000
C    -5.954000000    -2.770000000     2.691000000
O    -6.729000000    -2.144000000     1.746000000
C    -6.307000000    -1.295000000     0.786000000
C    -6.745000000    -1.450000000    -0.526000000
H    -7.376000000    -2.313000000    -0.721000000
C    -6.156000000    -0.668000000    -1.545000000
O    -6.495000000    -0.901000000    -2.889000000
C    -5.720000000    -0.716000000    -3.990000000
C    -4.515000000    -1.331000000    -4.148000000
H    -4.185000000    -2.109000000    -3.464000000
C    -5.980000000     0.345000000    -4.843000000
H    -6.696000000     1.127000000    -4.603000000
C    -5.082000000     0.735000000    -5.822000000
H    -5.341000000     1.621000000    -6.395000000
C    -3.896000000     0.026000000    -6.003000000
H    -3.131000000     0.293000000    -6.727000000
C    -3.575000000    -1.044000000    -5.188000000
O    -2.372000000    -1.638000000    -5.331000000
C    -1.193000000    -1.039000000    -5.207000000
C    -0.134000000    -1.715000000    -5.665000000
H    -0.236000000    -2.718000000    -6.072000000
C     1.164000000    -1.211000000    -5.482000000
O     2.235000000    -1.879000000    -6.104000000
C     3.578000000    -1.956000000    -5.744000000
C     3.982000000    -2.350000000    -4.478000000
H     3.356000000    -2.799000000    -3.711000000
C     4.498000000    -1.415000000    -6.658000000
H     4.241000000    -1.018000000    -7.637000000
C     5.856000000    -1.479000000    -6.343000000
H     6.608000000    -1.176000000    -7.067000000
C     6.270000000    -1.905000000    -5.081000000
H     7.309000000    -1.996000000    -4.775000000
C     5.324000000    -2.280000000    -4.186000000
O     5.778000000    -2.705000000    -2.971000000
C     5.216000000    -2.398000000    -1.765000000
C     4.962000000    -3.496000000    -0.935000000
H     5.161000000    -4.478000000    -1.357000000
C     4.522000000    -3.265000000     0.381000000
O     4.239000000    -4.331000000     1.245000000
C     4.275000000    -4.299000000     2.603000000
C     5.460000000    -4.377000000     3.396000000
H     6.434000000    -4.330000000     2.915000000
C     5.357000000    -4.513000000     4.772000000
H     6.177000000    -4.526000000     5.486000000
C     4.071000000    -4.432000000     5.346000000
H     3.889000000    -4.640000000     6.397000000
C     2.931000000    -4.383000000     4.578000000
C     3.052000000    -4.195000000     3.188000000
H     2.193000000    -4.154000000     2.523000000
C    -1.991000000    -2.056000000    -1.087000000
H    -2.845000000    -2.224000000    -1.738000000
C    -1.459000000    -0.765000000    -0.911000000
H    -1.945000000     0.023000000    -1.481000000
C    -0.328000000    -0.561000000    -0.100000000
H     0.007000000     0.471000000     0.096000000
C     0.240000000    -1.671000000     0.546000000
H     1.015000000    -1.501000000     1.289000000
C    -0.251000000    -2.973000000     0.396000000
H     0.217000000    -3.771000000     0.965000000
C    -1.331000000    -3.146000000    -0.530000000
C    -1.902000000    -4.513000000    -0.667000000
O    -1.303000000    -5.454000000    -0.152000000
O    -2.953000000    -4.738000000    -1.310000000
O    -0.648000000    -9.763000000    -2.080000000
H    -0.327000000    -8.872000000    -1.941000000
H    -0.678000000    -9.861000000    -3.032000000
O    -1.075000000    -8.273000000     2.408000000
H    -0.980000000    -9.104000000     1.942000000
H    -0.450000000    -7.687000000     1.982000000
O    -4.138000000    -6.532000000     1.774000000
H    -3.841000000    -7.254000000     1.221000000
H    -3.333000000    -6.090000000     2.044000000
O     1.785000000    -5.340000000    -3.576000000
H     1.741000000    -4.526000000    -3.073000000
H     1.020000000    -5.307000000    -4.150000000
O    -4.828000000    -8.484000000     3.484000000
H    -5.694000000    -8.782000000     3.204000000
H    -4.627000000    -7.751000000     2.902000000
O     0.722000000    -9.969000000     0.710000000
H     0.276000000   -10.103000000    -0.126000000
H     1.537000000    -9.523000000     0.479000000
O    -1.051000000    -5.566000000    -5.510000000
H    -1.435000000    -6.241000000    -6.069000000
H    -0.732000000    -4.902000000    -6.120000000
O    -5.127000000    -4.188000000    -5.332000000
H    -5.013000000    -3.327000000    -4.930000000
H    -4.499000000    -4.749000000    -4.877000000
O     2.554000000    -7.281000000     0.567000000
H     2.428000000    -7.829000000    -0.208000000
H     3.490000000    -7.082000000     0.570000000
O    -5.592000000    -5.437000000    -1.761000000
H    -5.866000000    -5.709000000    -0.885000000
H    -4.707000000    -5.094000000    -1.640000000
O     0.338000000    -7.137000000    -1.470000000
H     0.914000000    -6.592000000    -2.006000000
H    -0.200000000    -6.511000000    -0.984000000
O    -3.313000000   -10.528000000    -0.451000000
H    -2.790000000   -10.492000000    -1.251000000
H    -3.088000000    -9.725000000     0.020000000
O    -7.909000000    -4.280000000    -2.977000000
H    -7.005000000    -4.524000000    -2.778000000
H    -8.388000000    -5.109000000    -2.972000000
O     0.459000000    -6.273000000     1.828000000
H    -0.246000000    -5.846000000     1.342000000
H     1.138000000    -6.436000000     1.173000000
O    -2.670000000    -7.696000000    -0.872000000
H    -3.281000000    -7.277000000    -1.477000000
H    -2.173000000    -6.971000000    -0.492000000
O     1.679000000    -2.784000000    -1.686000000
H     0.816000000    -2.714000000    -1.277000000
H     2.283000000    -2.433000000    -1.032000000
O    -6.505000000    -5.297000000     0.816000000
H    -6.845000000    -4.720000000     1.501000000
H    -5.959000000    -5.929000000     1.285000000
O    -3.215000000    -5.829000000    -3.768000000
H    -3.023000000    -5.536000000    -2.877000000
H    -2.357000000    -5.900000000    -4.187000000
O    -5.564000000    -7.882000000    -4.006000000
H    -5.099000000    -7.109000000    -3.688000000
H    -5.921000000    -8.289000000    -3.217000000
