215
-1464.43202
C     1.846000000    -4.088000000    -2.857000000
H     1.000000000    -4.068000000    -3.540000000
C     1.686000000    -4.210000000    -1.487000000
C     2.851000000    -4.208000000    -0.682000000
H     2.684000000    -4.262000000     0.390000000
C     0.273000000    -4.204000000    -0.931000000
O    -0.701000000    -4.465000000    -1.921000000
H     0.062000000    -3.173000000    -0.612000000
O     0.136000000    -5.127000000     0.130000000
C    -0.451000000    -4.633000000     1.261000000
C     0.344000000    -4.063000000     2.229000000
H     1.418000000    -4.059000000     2.067000000
C    -0.172000000    -3.371000000     3.353000000
O     0.729000000    -2.725000000     4.191000000
C    -1.579000000    -3.263000000     3.352000000
C    -2.280000000    -2.413000000     4.443000000
H    -3.298000000    -2.798000000     4.534000000
C    -2.361000000    -0.945000000     4.146000000
C    -3.486000000    -0.430000000     3.538000000
H    -4.323000000    -1.091000000     3.333000000
H    -1.716000000    -2.523000000     5.371000000
C    -2.351000000    -3.810000000     2.322000000
H    -3.423000000    -3.629000000     2.298000000
C    -1.822000000    -4.528000000     1.258000000
C    -2.644000000    -4.971000000     0.108000000
H    -3.649000000    -5.279000000     0.406000000
H    -2.179000000    -5.858000000    -0.328000000
C    -2.755000000    -3.835000000    -0.970000000
C    -3.894000000    -3.049000000    -1.065000000
H    -4.663000000    -3.153000000    -0.304000000
C    -1.825000000    -3.759000000    -1.935000000
C    -1.977000000    -2.892000000    -2.980000000
H    -1.165000000    -2.687000000    -3.672000000
C    -3.021000000    -1.961000000    -3.005000000
O    -3.014000000    -0.902000000    -3.922000000
C    -2.564000000     0.365000000    -3.400000000
C    -1.689000000     1.077000000    -4.386000000
C    -1.748000000     2.471000000    -4.577000000
H    -2.528000000     3.020000000    -4.055000000
C    -0.596000000     0.359000000    -4.931000000
H    -0.633000000    -0.727000000    -4.901000000
O    -3.791000000     1.090000000    -3.225000000
H    -2.066000000     0.360000000    -2.419000000
C    -4.014000000    -2.094000000    -2.053000000
C    -5.210000000    -1.112000000    -2.087000000
H    -6.136000000    -1.634000000    -1.828000000
H    -5.329000000    -0.900000000    -3.151000000
C    -4.893000000     0.137000000    -1.242000000
C    -5.172000000     0.244000000     0.140000000
H    -5.608000000    -0.545000000     0.747000000
C    -4.290000000     1.184000000    -1.915000000
C    -3.788000000     2.302000000    -1.246000000
H    -3.252000000     3.143000000    -1.678000000
C    -4.002000000     2.348000000     0.132000000
O    -3.330000000     3.390000000     0.685000000
C    -2.067000000     3.108000000     1.426000000
C    -1.005000000     4.155000000     1.135000000
C    -0.967000000     4.869000000    -0.053000000
H    -1.659000000     4.642000000    -0.861000000
C     0.037000000     4.362000000     2.093000000
H    -0.038000000     3.925000000     3.085000000
O    -2.309000000     2.957000000     2.858000000
H    -1.705000000     2.177000000     0.965000000
C    -4.641000000     1.365000000     0.868000000
C    -4.707000000     1.474000000     2.369000000
H    -5.595000000     0.960000000     2.741000000
H    -4.811000000     2.512000000     2.693000000
C    -3.490000000     0.901000000     3.084000000
C    -2.329000000     1.694000000     3.337000000
C    -1.309000000     1.180000000     4.120000000
H    -0.538000000     1.867000000     4.460000000
C    -1.275000000    -0.129000000     4.491000000
O    -0.091000000    -0.519000000     5.027000000
C     0.751000000    -1.249000000     4.086000000
H     0.484000000    -0.860000000     3.093000000
C     2.194000000    -0.726000000     4.354000000
C     3.265000000    -1.358000000     3.775000000
H     3.096000000    -2.294000000     3.248000000
C     2.419000000     0.566000000     4.885000000
H     1.654000000     1.246000000     5.251000000
C     3.776000000     0.985000000     5.034000000
O     4.017000000     2.213000000     5.475000000
C     4.836000000     0.262000000     4.553000000
H     5.803000000     0.729000000     4.723000000
C     4.565000000    -0.865000000     3.857000000
O     5.606000000    -1.646000000     3.368000000
C     5.571000000    -2.922000000     2.869000000
C     5.311000000    -2.978000000     1.453000000
H     5.234000000    -2.062000000     0.873000000
C     5.684000000    -4.078000000     3.749000000
H     5.862000000    -3.964000000     4.815000000
C     5.582000000    -5.312000000     3.162000000
H     5.782000000    -6.176000000     3.792000000
C     5.440000000    -5.390000000     1.805000000
H     5.478000000    -6.356000000     1.308000000
C     5.242000000    -4.293000000     0.953000000
O     5.218000000    -4.507000000    -0.412000000
C     4.093000000    -4.354000000    -1.220000000
C     4.245000000    -4.289000000    -2.592000000
H     5.226000000    -4.323000000    -3.060000000
C     3.094000000    -4.109000000    -3.397000000
O     3.331000000    -3.954000000    -4.737000000
C     2.532000000    -3.069000000    -5.501000000
C     2.599000000    -1.631000000    -5.553000000
H     3.338000000    -0.968000000    -5.111000000
C     1.639000000    -3.704000000    -6.381000000
H     1.660000000    -4.791000000    -6.372000000
C     0.694000000    -3.083000000    -7.173000000
H    -0.013000000    -3.713000000    -7.706000000
C     0.565000000    -1.673000000    -7.021000000
H    -0.083000000    -1.060000000    -7.642000000
C     1.620000000    -1.032000000    -6.367000000
O     1.439000000     0.314000000    -6.374000000
C     0.383000000     0.980000000    -5.709000000
C     0.136000000     2.323000000    -6.095000000
H     0.819000000     2.695000000    -6.854000000
C    -0.872000000     3.091000000    -5.464000000
O    -0.987000000     4.431000000    -5.774000000
C    -1.208000000     5.376000000    -4.744000000
C    -0.442000000     5.292000000    -3.597000000
H     0.325000000     4.534000000    -3.463000000
C    -2.201000000     6.353000000    -4.949000000
H    -2.691000000     6.516000000    -5.905000000
C    -2.332000000     7.349000000    -3.952000000
H    -3.002000000     8.193000000    -4.093000000
C    -1.554000000     7.295000000    -2.795000000
H    -1.569000000     8.101000000    -2.066000000
C    -0.676000000     6.222000000    -2.632000000
O     0.296000000     6.303000000    -1.611000000
C     0.125000000     5.766000000    -0.343000000
C     1.082000000     6.045000000     0.658000000
H     1.877000000     6.767000000     0.482000000
C     1.080000000     5.282000000     1.781000000
O     2.020000000     5.538000000     2.721000000
C     2.154000000     4.920000000     3.949000000
C     1.985000000     5.726000000     5.048000000
H     1.421000000     6.650000000     4.942000000
C     2.316000000     5.350000000     6.312000000
H     2.130000000     5.963000000     7.190000000
C     3.060000000     4.101000000     6.384000000
H     3.495000000     3.730000000     7.309000000
C     3.243000000     3.246000000     5.310000000
C     2.767000000     3.691000000     4.055000000
H     2.872000000     3.151000000     3.118000000
C     1.517000000     2.193000000    -0.176000000
H     1.941000000     3.048000000     0.346000000
C     0.681000000     1.272000000     0.448000000
H     0.380000000     1.445000000     1.478000000
C     0.194000000     0.165000000    -0.302000000
H    -0.508000000    -0.556000000     0.159000000
C     0.686000000     0.009000000    -1.593000000
H     0.559000000    -0.934000000    -2.118000000
C     1.482000000     0.924000000    -2.257000000
H     1.863000000     0.789000000    -3.266000000
C     1.902000000     2.056000000    -1.537000000
C     2.934000000     3.015000000    -2.095000000
O     3.360000000     2.843000000    -3.203000000
O     3.246000000     4.019000000    -1.498000000
O     5.542000000     4.463000000    -3.083000000
H     4.688000000     4.167000000    -2.770000000
H     5.950000000     3.677000000    -3.448000000
O     7.654000000     0.524000000     1.184000000
H     6.848000000     1.016000000     1.338000000
H     7.518000000     0.101000000     0.336000000
O     2.181000000     5.398000000    -8.051000000
H     2.060000000     6.341000000    -7.933000000
H     2.483000000     5.088000000    -7.198000000
O     2.958000000     6.798000000    -2.308000000
H     3.296000000     6.009000000    -1.884000000
H     2.049000000     6.858000000    -2.013000000
O     5.270000000     4.177000000    -6.296000000
H     4.643000000     4.797000000    -5.924000000
H     4.754000000     3.391000000    -6.472000000
O     2.648000000     4.392000000    -5.113000000
H     2.840000000     5.171000000    -4.591000000
H     2.686000000     3.668000000    -4.488000000
O     5.049000000     5.961000000     3.028000000
H     4.517000000     6.707000000     3.307000000
H     4.703000000     5.729000000     2.166000000
O     3.916000000     1.785000000    -7.061000000
H     4.167000000     0.982000000    -7.517000000
H     2.963000000     1.818000000    -7.142000000
O     7.450000000    -0.586000000    -1.523000000
H     7.640000000    -1.524000000    -1.511000000
H     8.302000000    -0.171000000    -1.661000000
O     6.621000000     6.915000000    -3.730000000
H     6.716000000     6.865000000    -4.681000000
H     6.341000000     6.037000000    -3.471000000
O     4.587000000     0.878000000    -4.312000000
H     4.102000000     1.419000000    -3.689000000
H     4.611000000     1.399000000    -5.115000000
O     7.615000000     5.038000000    -1.246000000
H     6.678000000     5.021000000    -1.441000000
H     8.022000000     5.352000000    -2.053000000
O     4.537000000     5.124000000     0.478000000
H     4.824000000     5.822000000    -0.110000000
H     3.925000000     4.606000000    -0.045000000
O     3.843000000     7.776000000    -4.731000000
H     4.769000000     8.017000000    -4.727000000
H     3.643000000     7.579000000    -3.816000000
O     5.733000000    -2.084000000    -4.342000000
H     5.747000000    -1.175000000    -4.639000000
H     5.199000000    -2.069000000    -3.548000000
O     7.781000000     2.952000000    -5.586000000
H     7.771000000     2.327000000    -6.311000000
H     6.880000000     3.270000000    -5.532000000
O     4.713000000    -0.577000000    -1.868000000
H     5.631000000    -0.489000000    -1.611000000
H     4.652000000    -0.114000000    -2.703000000
O     5.716000000     2.504000000     1.744000000
H     5.100000000     1.774000000     1.690000000
H     5.180000000     3.281000000     1.582000000
O     3.793000000     0.399000000     0.540000000
H     4.216000000     0.129000000    -0.275000000
H     2.945000000     0.747000000     0.265000000
