215
-1471.25808
C     1.843000000    -3.720000000    -3.605000000
H     0.863000000    -3.513000000    -4.028000000
C     1.944000000    -4.052000000    -2.254000000
C     3.183000000    -4.269000000    -1.686000000
H     3.395000000    -4.388000000    -0.627000000
C     0.664000000    -3.989000000    -1.374000000
O    -0.519000000    -4.245000000    -2.120000000
H     0.705000000    -3.008000000    -0.878000000
O     0.725000000    -4.940000000    -0.383000000
C     0.209000000    -4.564000000     0.833000000
C     1.116000000    -3.947000000     1.705000000
H     2.138000000    -3.911000000     1.336000000
C     0.662000000    -3.345000000     2.888000000
O     1.594000000    -2.614000000     3.532000000
C    -0.655000000    -3.438000000     3.232000000
C    -1.127000000    -2.839000000     4.521000000
H    -1.965000000    -3.425000000     4.905000000
C    -1.484000000    -1.315000000     4.432000000
C    -2.762000000    -0.831000000     4.180000000
H    -3.577000000    -1.540000000     4.069000000
H    -0.333000000    -2.930000000     5.265000000
C    -1.578000000    -4.019000000     2.394000000
H    -2.656000000    -3.980000000     2.531000000
C    -1.174000000    -4.544000000     1.161000000
C    -2.180000000    -5.105000000     0.172000000
H    -3.105000000    -5.515000000     0.584000000
H    -1.735000000    -5.933000000    -0.384000000
C    -2.586000000    -4.050000000    -0.841000000
C    -3.748000000    -3.281000000    -0.573000000
H    -4.387000000    -3.473000000     0.285000000
C    -1.695000000    -3.604000000    -1.846000000
C    -2.160000000    -2.627000000    -2.716000000
H    -1.645000000    -2.498000000    -3.665000000
C    -3.341000000    -1.894000000    -2.471000000
O    -3.575000000    -0.895000000    -3.330000000
C    -3.225000000     0.439000000    -2.764000000
C    -2.539000000     1.303000000    -3.817000000
C    -2.277000000     2.669000000    -3.609000000
H    -2.713000000     3.218000000    -2.779000000
C    -1.714000000     0.631000000    -4.733000000
H    -1.741000000    -0.456000000    -4.727000000
O    -4.343000000     1.136000000    -2.196000000
H    -2.595000000     0.311000000    -1.872000000
C    -4.102000000    -2.211000000    -1.383000000
C    -5.312000000    -1.348000000    -0.986000000
H    -5.938000000    -1.910000000    -0.289000000
H    -5.895000000    -1.096000000    -1.874000000
C    -5.048000000    -0.044000000    -0.157000000
C    -5.045000000    -0.093000000     1.272000000
H    -5.284000000    -1.032000000     1.764000000
C    -4.571000000     1.093000000    -0.798000000
C    -4.184000000     2.236000000    -0.083000000
H    -3.806000000     3.127000000    -0.579000000
C    -4.114000000     2.142000000     1.275000000
O    -3.501000000     3.274000000     1.891000000
C    -2.141000000     3.128000000     2.281000000
C    -1.418000000     4.357000000     2.030000000
C    -1.897000000     5.344000000     1.103000000
H    -2.899000000     5.255000000     0.692000000
C    -0.125000000     4.434000000     2.525000000
H     0.252000000     3.678000000     3.210000000
O    -2.109000000     2.781000000     3.659000000
H    -1.647000000     2.389000000     1.633000000
C    -4.558000000     1.047000000     1.947000000
C    -4.460000000     0.916000000     3.440000000
H    -5.221000000     0.212000000     3.786000000
H    -4.670000000     1.896000000     3.873000000
C    -3.046000000     0.496000000     3.842000000
C    -2.014000000     1.410000000     4.004000000
C    -0.710000000     1.014000000     4.373000000
H     0.008000000     1.762000000     4.699000000
C    -0.481000000    -0.330000000     4.568000000
O     0.841000000    -0.684000000     4.645000000
C     1.589000000    -1.134000000     3.468000000
H     1.106000000    -0.794000000     2.540000000
C     3.033000000    -0.643000000     3.391000000
C     4.008000000    -1.401000000     2.818000000
H     3.870000000    -2.426000000     2.486000000
C     3.348000000     0.656000000     3.811000000
H     2.544000000     1.358000000     4.021000000
C     4.707000000     1.081000000     3.717000000
O     5.109000000     2.338000000     4.101000000
C     5.686000000     0.273000000     3.121000000
H     6.685000000     0.687000000     3.010000000
C     5.343000000    -0.976000000     2.656000000
O     6.298000000    -1.897000000     2.109000000
C     6.060000000    -3.029000000     1.433000000
C     6.023000000    -3.036000000     0.037000000
H     6.005000000    -2.071000000    -0.463000000
C     6.125000000    -4.244000000     2.065000000
H     6.023000000    -4.306000000     3.146000000
C     6.053000000    -5.445000000     1.336000000
H     5.942000000    -6.371000000     1.895000000
C     6.062000000    -5.451000000    -0.089000000
H     6.262000000    -6.359000000    -0.651000000
C     5.938000000    -4.216000000    -0.677000000
O     5.607000000    -4.199000000    -2.002000000
C     4.317000000    -4.204000000    -2.497000000
C     4.157000000    -3.992000000    -3.826000000
H     5.054000000    -4.031000000    -4.439000000
C     2.952000000    -3.661000000    -4.413000000
O     2.849000000    -3.238000000    -5.751000000
C     1.593000000    -2.761000000    -6.168000000
C     1.422000000    -1.351000000    -6.113000000
H     2.234000000    -0.761000000    -5.696000000
C     0.560000000    -3.576000000    -6.710000000
H     0.646000000    -4.660000000    -6.721000000
C    -0.656000000    -2.915000000    -6.941000000
H    -1.485000000    -3.538000000    -7.267000000
C    -0.815000000    -1.567000000    -6.895000000
H    -1.823000000    -1.197000000    -7.068000000
C     0.210000000    -0.731000000    -6.511000000
O     0.090000000     0.671000000    -6.409000000
C    -0.867000000     1.322000000    -5.583000000
C    -0.707000000     2.663000000    -5.439000000
H     0.075000000     3.091000000    -6.060000000
C    -1.375000000     3.351000000    -4.416000000
O    -1.059000000     4.609000000    -4.247000000
C    -1.779000000     5.514000000    -3.447000000
C    -1.318000000     5.888000000    -2.199000000
H    -0.415000000     5.398000000    -1.844000000
C    -2.811000000     6.253000000    -4.089000000
H    -3.069000000     5.938000000    -5.096000000
C    -3.471000000     7.198000000    -3.363000000
H    -4.295000000     7.689000000    -3.874000000
C    -3.124000000     7.522000000    -2.010000000
H    -3.583000000     8.313000000    -1.423000000
C    -1.993000000     6.899000000    -1.496000000
O    -1.524000000     7.293000000    -0.243000000
C    -1.073000000     6.342000000     0.633000000
C     0.238000000     6.350000000     1.123000000
H     0.880000000     7.146000000     0.752000000
C     0.661000000     5.529000000     2.148000000
O     1.935000000     5.640000000     2.581000000
C     2.552000000     4.935000000     3.616000000
C     2.215000000     5.231000000     4.915000000
H     1.440000000     5.975000000     5.078000000
C     2.791000000     4.461000000     5.937000000
H     2.454000000     4.522000000     6.969000000
C     3.802000000     3.563000000     5.678000000
H     4.263000000     3.020000000     6.499000000
C     4.211000000     3.357000000     4.324000000
C     3.528000000     3.997000000     3.322000000
H     3.910000000     3.902000000     2.309000000
C     1.109000000     2.009000000     0.090000000
H     1.586000000     2.694000000     0.786000000
C     0.291000000     1.022000000     0.697000000
H     0.204000000     0.943000000     1.778000000
C    -0.457000000     0.172000000    -0.068000000
H    -1.179000000    -0.535000000     0.503000000
C    -0.249000000     0.192000000    -1.475000000
H    -0.828000000    -0.461000000    -2.123000000
C     0.593000000     1.096000000    -2.076000000
H     0.735000000     1.217000000    -3.147000000
C     1.256000000     2.061000000    -1.279000000
C     2.078000000     3.162000000    -1.843000000
O     2.677000000     2.944000000    -2.866000000
O     2.276000000     4.188000000    -1.229000000
O     6.165000000     8.497000000    -1.330000000
H     6.250000000     7.655000000    -1.778000000
H     5.337000000     8.856000000    -1.650000000
O     2.009000000     6.709000000    -2.177000000
H     2.157000000     5.877000000    -1.728000000
H     1.667000000     6.460000000    -3.036000000
O     5.016000000     3.331000000    -1.719000000
H     4.575000000     3.942000000    -1.129000000
H     4.376000000     3.160000000    -2.410000000
O     3.547000000     8.950000000    -2.005000000
H     3.739000000     9.028000000    -1.070000000
H     2.869000000     8.276000000    -2.055000000
O     3.280000000     1.657000000    -5.078000000
H     2.442000000     1.253000000    -5.303000000
H     3.070000000     2.270000000    -4.374000000
O     3.102000000     2.571000000    -8.057000000
H     3.476000000     1.690000000    -8.051000000
H     3.144000000     2.855000000    -7.143000000
O     6.928000000     5.563000000     0.753000000
H     7.131000000     6.019000000     1.569000000
H     6.011000000     5.777000000     0.581000000
O     2.497000000     5.074000000    -4.413000000
H     2.451000000     4.322000000    -3.823000000
H     3.209000000     4.861000000    -5.017000000
O     7.759000000     3.746000000    -1.019000000
H     6.918000000     3.561000000    -1.436000000
H     7.536000000     4.280000000    -0.256000000
O     4.983000000     4.150000000    -5.486000000
H     5.419000000     3.940000000    -6.312000000
H     5.046000000     3.346000000    -4.971000000
O     4.977000000    -0.571000000    -4.759000000
H     4.581000000     0.290000000    -4.895000000
H     5.107000000    -0.917000000    -5.642000000
O     0.046000000     9.542000000    -2.423000000
H    -0.838000000     9.535000000    -2.055000000
H     0.321000000     8.626000000    -2.401000000
O     4.258000000     5.888000000    -0.032000000
H     3.918000000     6.729000000    -0.337000000
H     3.541000000     5.272000000    -0.180000000
O     5.974000000     6.359000000    -3.790000000
H     5.586000000     5.728000000    -4.396000000
H     6.185000000     7.117000000    -4.336000000
O     1.625000000     6.938000000    -6.318000000
H     1.970000000     6.331000000    -5.663000000
H     1.871000000     7.805000000    -5.994000000
O     3.689000000     7.983000000     2.554000000
H     3.496000000     7.047000000     2.506000000
H     3.662000000     8.186000000     3.489000000
O     4.224000000    -0.760000000    -2.034000000
H     4.954000000    -0.145000000    -1.962000000
H     4.118000000    -0.897000000    -2.975000000
O     6.667000000     1.278000000    -2.586000000
H     7.123000000     1.007000000    -1.790000000
H     6.046000000     1.944000000    -2.292000000
O     2.805000000    -1.436000000     0.016000000
H     3.303000000    -1.408000000    -0.800000000
H     2.182000000    -0.713000000    -0.058000000
