215
-1467.89630
C     1.038000000    -3.898000000    -3.500000000
H     0.013000000    -3.619000000    -3.731000000
C     1.304000000    -4.202000000    -2.142000000
C     2.650000000    -4.462000000    -1.746000000
H     2.933000000    -4.706000000    -0.725000000
C     0.188000000    -4.125000000    -1.113000000
O    -1.068000000    -4.395000000    -1.760000000
H     0.203000000    -3.150000000    -0.603000000
O     0.420000000    -5.039000000    -0.073000000
C    -0.034000000    -4.646000000     1.191000000
C     0.972000000    -4.136000000     2.055000000
H     2.018000000    -4.262000000     1.788000000
C     0.727000000    -3.387000000     3.178000000
O     1.740000000    -2.718000000     3.794000000
C    -0.638000000    -3.159000000     3.583000000
C    -0.962000000    -2.468000000     4.921000000
H    -1.911000000    -2.881000000     5.270000000
C    -1.150000000    -0.944000000     4.652000000
C    -2.402000000    -0.325000000     4.428000000
H    -3.265000000    -0.981000000     4.336000000
H    -0.147000000    -2.568000000     5.641000000
C    -1.631000000    -3.672000000     2.796000000
H    -2.630000000    -3.499000000     3.188000000
C    -1.365000000    -4.404000000     1.612000000
C    -2.462000000    -4.851000000     0.730000000
H    -3.271000000    -5.206000000     1.371000000
H    -2.223000000    -5.693000000     0.077000000
C    -2.875000000    -3.770000000    -0.234000000
C    -3.961000000    -2.934000000     0.021000000
H    -4.471000000    -2.951000000     0.980000000
C    -2.134000000    -3.538000000    -1.432000000
C    -2.466000000    -2.534000000    -2.335000000
H    -1.852000000    -2.413000000    -3.224000000
C    -3.566000000    -1.738000000    -2.030000000
O    -3.895000000    -0.667000000    -2.874000000
C    -3.472000000     0.644000000    -2.339000000
C    -2.878000000     1.390000000    -3.544000000
C    -2.954000000     2.751000000    -3.753000000
H    -3.376000000     3.415000000    -3.003000000
C    -2.110000000     0.654000000    -4.461000000
H    -2.024000000    -0.425000000    -4.364000000
O    -4.556000000     1.430000000    -1.790000000
H    -2.681000000     0.503000000    -1.588000000
C    -4.223000000    -1.869000000    -0.820000000
C    -5.399000000    -0.952000000    -0.384000000
H    -6.027000000    -1.474000000     0.341000000
H    -6.134000000    -0.704000000    -1.153000000
C    -4.760000000     0.336000000     0.250000000
C    -4.707000000     0.454000000     1.643000000
H    -4.988000000    -0.336000000     2.335000000
C    -4.549000000     1.475000000    -0.482000000
C    -4.047000000     2.603000000     0.130000000
H    -3.833000000     3.509000000    -0.431000000
C    -3.709000000     2.596000000     1.461000000
O    -2.962000000     3.648000000     1.974000000
C    -1.536000000     3.370000000     2.328000000
C    -0.575000000     4.403000000     1.794000000
C    -0.656000000     4.776000000     0.468000000
H    -1.510000000     4.460000000    -0.126000000
C     0.621000000     4.730000000     2.471000000
H     0.878000000     4.376000000     3.466000000
O    -1.301000000     3.195000000     3.756000000
H    -1.272000000     2.375000000     1.941000000
C    -4.099000000     1.518000000     2.257000000
C    -3.881000000     1.520000000     3.789000000
H    -4.625000000     0.867000000     4.249000000
H    -4.087000000     2.536000000     4.133000000
C    -2.506000000     1.061000000     4.137000000
C    -1.325000000     1.852000000     4.122000000
C    -0.119000000     1.233000000     4.404000000
H     0.742000000     1.893000000     4.474000000
C    -0.011000000    -0.163000000     4.632000000
O     1.290000000    -0.679000000     4.702000000
C     1.813000000    -1.368000000     3.505000000
H     1.172000000    -1.153000000     2.638000000
C     3.242000000    -0.936000000     3.137000000
C     4.113000000    -1.897000000     2.593000000
H     3.850000000    -2.949000000     2.514000000
C     3.793000000     0.349000000     3.476000000
H     3.178000000     1.048000000     4.037000000
C     5.028000000     0.707000000     3.103000000
O     5.413000000     1.978000000     3.218000000
C     5.764000000    -0.208000000     2.368000000
H     6.678000000     0.162000000     1.911000000
C     5.338000000    -1.543000000     2.151000000
O     6.311000000    -2.346000000     1.637000000
C     6.054000000    -3.504000000     0.900000000
C     5.533000000    -3.388000000    -0.326000000
H     5.138000000    -2.455000000    -0.720000000
C     6.397000000    -4.749000000     1.421000000
H     6.811000000    -4.815000000     2.424000000
C     6.268000000    -5.878000000     0.632000000
H     6.581000000    -6.855000000     0.991000000
C     5.896000000    -5.714000000    -0.675000000
H     5.810000000    -6.610000000    -1.285000000
C     5.519000000    -4.490000000    -1.146000000
O     4.952000000    -4.399000000    -2.342000000
C     3.652000000    -4.230000000    -2.722000000
C     3.380000000    -3.971000000    -4.095000000
H     4.222000000    -3.859000000    -4.774000000
C     2.061000000    -3.765000000    -4.458000000
O     1.845000000    -3.253000000    -5.719000000
C     0.600000000    -2.747000000    -6.143000000
C     0.405000000    -1.369000000    -6.256000000
H     1.191000000    -0.691000000    -5.933000000
C    -0.424000000    -3.589000000    -6.458000000
H    -0.151000000    -4.635000000    -6.566000000
C    -1.717000000    -3.134000000    -6.684000000
H    -2.488000000    -3.839000000    -6.983000000
C    -1.938000000    -1.759000000    -6.725000000
H    -2.931000000    -1.337000000    -6.859000000
C    -0.868000000    -0.875000000    -6.544000000
O    -1.001000000     0.480000000    -6.584000000
C    -1.626000000     1.239000000    -5.627000000
C    -1.768000000     2.563000000    -5.836000000
H    -1.260000000     2.959000000    -6.712000000
C    -2.456000000     3.383000000    -4.900000000
O    -2.510000000     4.679000000    -5.142000000
C    -2.403000000     5.596000000    -4.099000000
C    -1.396000000     5.455000000    -3.171000000
H    -0.677000000     4.666000000    -3.375000000
C    -3.442000000     6.500000000    -3.810000000
H    -4.365000000     6.629000000    -4.371000000
C    -3.369000000     7.305000000    -2.651000000
H    -4.233000000     7.938000000    -2.467000000
C    -2.271000000     7.241000000    -1.804000000
H    -2.268000000     7.926000000    -0.960000000
C    -1.342000000     6.236000000    -2.004000000
O    -0.141000000     6.356000000    -1.280000000
C     0.187000000     5.742000000    -0.080000000
C     1.347000000     6.096000000     0.543000000
H     1.970000000     6.789000000    -0.017000000
C     1.590000000     5.615000000     1.841000000
O     2.686000000     5.926000000     2.648000000
C     3.443000000     5.065000000     3.478000000
C     3.492000000     5.264000000     4.854000000
H     3.059000000     6.195000000     5.212000000
C     4.047000000     4.317000000     5.684000000
H     4.043000000     4.415000000     6.766000000
C     4.665000000     3.240000000     5.137000000
H     5.071000000     2.517000000     5.840000000
C     4.723000000     3.003000000     3.797000000
C     4.093000000     3.922000000     2.936000000
H     4.181000000     3.818000000     1.858000000
C     1.301000000     2.166000000    -0.337000000
H     1.850000000     3.007000000     0.080000000
C     0.518000000     1.350000000     0.448000000
H     0.619000000     1.405000000     1.529000000
C    -0.245000000     0.306000000    -0.103000000
H    -0.754000000    -0.387000000     0.489000000
C    -0.195000000     0.038000000    -1.437000000
H    -0.645000000    -0.845000000    -1.883000000
C     0.584000000     0.862000000    -2.273000000
H     0.574000000     0.648000000    -3.338000000
C     1.359000000     1.896000000    -1.743000000
C     2.336000000     2.741000000    -2.531000000
O     2.790000000     2.390000000    -3.589000000
O     2.792000000     3.709000000    -1.961000000
O     5.935000000     2.177000000    -7.186000000
H     5.653000000     2.340000000    -6.286000000
H     6.412000000     1.349000000    -7.141000000
O     2.308000000     6.153000000    -2.970000000
H     1.566000000     6.133000000    -2.367000000
H     2.685000000     5.274000000    -2.915000000
O     5.236000000     2.916000000    -4.563000000
H     4.365000000     2.718000000    -4.218000000
H     5.562000000     3.618000000    -4.001000000
O     2.600000000     1.935000000    -6.212000000
H     3.160000000     1.171000000    -6.344000000
H     2.560000000     2.041000000    -5.261000000
O     5.316000000     6.149000000    -6.729000000
H     4.666000000     5.475000000    -6.532000000
H     4.938000000     6.956000000    -6.379000000
O     8.496000000     3.775000000    -2.906000000
H     8.231000000     2.941000000    -2.519000000
H     9.213000000     3.548000000    -3.498000000
O     3.857000000    -0.598000000    -6.348000000
H     4.064000000    -1.219000000    -5.650000000
H     4.402000000    -0.875000000    -7.084000000
O     7.537000000     1.359000000    -1.720000000
H     6.809000000     1.351000000    -1.100000000
H     7.981000000     0.522000000    -1.579000000
O     1.837000000     4.523000000    -6.706000000
H     1.000000000     4.132000000    -6.956000000
H     2.400000000     3.776000000    -6.503000000
O     6.452000000     3.939000000     0.510000000
H     6.037000000     4.450000000    -0.185000000
H     5.899000000     3.163000000     0.600000000
O     3.209000000     8.807000000    -2.790000000
H     2.785000000     7.953000000    -2.870000000
H     4.144000000     8.607000000    -2.737000000
O     3.618000000    -0.306000000    -3.459000000
H     3.341000000     0.608000000    -3.523000000
H     4.535000000    -0.298000000    -3.735000000
O     5.057000000     4.949000000    -1.341000000
H     4.269000000     4.477000000    -1.611000000
H     5.593000000     4.992000000    -2.132000000
O     6.596000000     5.569000000    -3.671000000
H     6.964000000     6.137000000    -4.348000000
H     7.326000000     5.009000000    -3.407000000
O     1.654000000     7.070000000    -5.438000000
H     1.827000000     6.640000000    -4.601000000
H     1.689000000     6.364000000    -6.083000000
O     4.562000000     1.783000000     0.051000000
H     4.215000000     2.153000000    -0.761000000
H     4.253000000     0.877000000     0.052000000
O     6.264000000    -0.018000000    -3.897000000
H     6.332000000     0.451000000    -3.066000000
H     6.900000000     0.412000000    -4.468000000
O     4.569000000     7.201000000     0.447000000
H     4.873000000     6.446000000    -0.056000000
H     4.410000000     6.856000000     1.325000000
O     3.390000000    -0.613000000    -0.694000000
H     2.551000000    -0.258000000    -0.400000000
H     3.364000000    -0.529000000    -1.647000000
