215
-1467.20400
C    -4.933000000    -0.006000000    -1.395000000
H    -4.527000000     0.474000000    -2.281000000
C    -4.726000000     0.431000000    -0.049000000
C    -5.321000000    -0.247000000     1.001000000
H    -5.051000000    -0.016000000     2.029000000
C    -3.937000000     1.701000000     0.255000000
O    -4.256000000     2.723000000    -0.666000000
H    -2.854000000     1.528000000     0.172000000
O    -4.260000000     2.142000000     1.560000000
C    -3.159000000     2.485000000     2.292000000
C    -2.708000000     1.622000000     3.249000000
H    -3.109000000     0.618000000     3.358000000
C    -1.595000000     1.835000000     4.014000000
O    -1.137000000     0.871000000     4.837000000
C    -0.924000000     3.049000000     3.793000000
C     0.419000000     3.323000000     4.555000000
H     0.597000000     4.382000000     4.748000000
C     1.561000000     2.764000000     3.776000000
C     2.222000000     3.453000000     2.770000000
H     1.945000000     4.436000000     2.397000000
H     0.361000000     2.828000000     5.527000000
C    -1.326000000     4.008000000     2.786000000
H    -0.777000000     4.921000000     2.569000000
C    -2.463000000     3.732000000     2.054000000
C    -2.931000000     4.667000000     0.995000000
H    -2.595000000     5.661000000     1.299000000
H    -4.022000000     4.612000000     0.982000000
C    -2.398000000     4.254000000    -0.428000000
C    -1.282000000     4.807000000    -1.025000000
H    -0.828000000     5.687000000    -0.577000000
C    -3.131000000     3.292000000    -1.157000000
C    -2.640000000     2.884000000    -2.424000000
H    -3.158000000     2.209000000    -3.100000000
C    -1.471000000     3.377000000    -2.952000000
O    -1.025000000     2.853000000    -4.140000000
C     0.131000000     1.967000000    -4.000000000
C    -0.004000000     0.763000000    -4.961000000
C     1.145000000    -0.032000000    -5.165000000
H     2.117000000     0.166000000    -4.720000000
C    -1.293000000     0.291000000    -5.429000000
H    -2.190000000     0.888000000    -5.288000000
O     1.445000000     2.576000000    -4.130000000
H     0.100000000     1.507000000    -3.001000000
C    -0.755000000     4.306000000    -2.250000000
C     0.523000000     4.932000000    -2.679000000
H     0.685000000     5.940000000    -2.293000000
H     0.550000000     4.960000000    -3.770000000
C     1.683000000     4.014000000    -2.179000000
C     2.266000000     4.307000000    -0.894000000
H     1.990000000     5.182000000    -0.311000000
C     2.104000000     2.955000000    -3.006000000
C     2.996000000     2.068000000    -2.434000000
H     3.254000000     1.163000000    -2.979000000
C     3.653000000     2.348000000    -1.210000000
O     4.507000000     1.401000000    -0.701000000
C     4.138000000     0.506000000     0.346000000
C     4.717000000    -0.867000000     0.064000000
C     4.874000000    -1.407000000    -1.242000000
H     4.726000000    -0.737000000    -2.085000000
C     5.062000000    -1.664000000     1.225000000
H     4.991000000    -1.267000000     2.235000000
O     4.696000000     1.077000000     1.566000000
H     3.039000000     0.497000000     0.372000000
C     3.283000000     3.472000000    -0.456000000
C     3.950000000     3.785000000     0.883000000
H     3.738000000     4.845000000     1.043000000
H     5.041000000     3.802000000     0.925000000
C     3.288000000     2.916000000     2.036000000
C     3.690000000     1.607000000     2.293000000
C     3.041000000     0.850000000     3.248000000
H     3.447000000    -0.127000000     3.497000000
C     1.965000000     1.434000000     4.000000000
O     1.222000000     0.570000000     4.727000000
C    -0.066000000     0.105000000     4.223000000
H    -0.098000000     0.281000000     3.138000000
C    -0.281000000    -1.399000000     4.448000000
C    -1.337000000    -2.011000000     3.795000000
H    -2.111000000    -1.394000000     3.348000000
C     0.778000000    -2.170000000     4.974000000
H     1.682000000    -1.692000000     5.342000000
C     0.852000000    -3.527000000     4.781000000
O     1.831000000    -4.315000000     5.303000000
C    -0.217000000    -4.150000000     4.146000000
H    -0.195000000    -5.225000000     3.988000000
C    -1.335000000    -3.386000000     3.698000000
O    -2.414000000    -4.018000000     3.095000000
C    -3.669000000    -3.635000000     3.442000000
C    -4.530000000    -3.174000000     2.480000000
H    -4.302000000    -3.353000000     1.433000000
C    -4.126000000    -3.585000000     4.772000000
H    -3.432000000    -3.920000000     5.539000000
C    -5.445000000    -3.242000000     5.084000000
H    -5.781000000    -3.356000000     6.111000000
C    -6.252000000    -2.746000000     4.050000000
H    -7.251000000    -2.432000000     4.342000000
C    -5.779000000    -2.713000000     2.748000000
O    -6.577000000    -2.110000000     1.836000000
C    -6.110000000    -1.349000000     0.788000000
C    -6.397000000    -1.729000000    -0.525000000
H    -6.980000000    -2.640000000    -0.640000000
C    -5.772000000    -1.090000000    -1.632000000
O    -5.827000000    -1.665000000    -2.911000000
C    -5.400000000    -1.171000000    -4.141000000
C    -4.185000000    -1.557000000    -4.715000000
H    -3.621000000    -2.324000000    -4.189000000
C    -6.214000000    -0.306000000    -4.879000000
H    -7.128000000    -0.005000000    -4.375000000
C    -5.775000000     0.074000000    -6.162000000
H    -6.489000000     0.690000000    -6.701000000
C    -4.590000000    -0.334000000    -6.756000000
H    -4.348000000    -0.115000000    -7.793000000
C    -3.749000000    -1.051000000    -5.947000000
O    -2.526000000    -1.497000000    -6.465000000
C    -1.369000000    -0.949000000    -6.082000000
C    -0.232000000    -1.768000000    -6.155000000
H    -0.339000000    -2.758000000    -6.590000000
C     0.967000000    -1.327000000    -5.643000000
O     1.910000000    -2.220000000    -5.562000000
C     3.255000000    -2.149000000    -5.257000000
C     3.645000000    -2.633000000    -4.055000000
H     2.900000000    -3.015000000    -3.362000000
C     4.143000000    -1.532000000    -6.131000000
H     3.857000000    -1.035000000    -7.054000000
C     5.515000000    -1.554000000    -5.841000000
H     6.156000000    -0.990000000    -6.514000000
C     5.851000000    -2.189000000    -4.667000000
H     6.903000000    -2.344000000    -4.442000000
C     4.999000000    -2.712000000    -3.749000000
O     5.481000000    -3.312000000    -2.584000000
C     5.311000000    -2.722000000    -1.354000000
C     5.411000000    -3.549000000    -0.225000000
H     5.642000000    -4.597000000    -0.395000000
C     5.278000000    -3.048000000     1.081000000
O     5.375000000    -3.888000000     2.185000000
C     4.968000000    -3.714000000     3.438000000
C     5.784000000    -3.235000000     4.442000000
H     6.845000000    -3.102000000     4.244000000
C     5.269000000    -2.986000000     5.748000000
H     5.808000000    -2.623000000     6.619000000
C     3.969000000    -3.427000000     6.006000000
H     3.699000000    -3.342000000     7.056000000
C     3.162000000    -3.998000000     5.025000000
C     3.663000000    -4.072000000     3.713000000
H     2.978000000    -4.328000000     2.909000000
C    -2.095000000    -2.325000000    -0.905000000
H    -2.956000000    -2.508000000    -1.543000000
C    -1.571000000    -1.011000000    -1.049000000
H    -2.081000000    -0.273000000    -1.662000000
C    -0.420000000    -0.621000000    -0.325000000
H     0.003000000     0.362000000    -0.460000000
C     0.105000000    -1.564000000     0.635000000
H     0.931000000    -1.285000000     1.283000000
C    -0.484000000    -2.839000000     0.790000000
H    -0.137000000    -3.534000000     1.550000000
C    -1.546000000    -3.274000000    -0.018000000
C    -2.070000000    -4.620000000     0.034000000
O    -1.561000000    -5.530000000     0.651000000
O    -2.881000000    -5.003000000    -0.774000000
O    -1.226000000    -9.464000000     3.924000000
H    -1.477000000    -8.554000000     3.766000000
H    -0.525000000    -9.632000000     3.294000000
O    -2.243000000    -6.671000000     2.956000000
H    -2.122000000    -6.452000000     2.032000000
H    -2.235000000    -5.826000000     3.405000000
O     1.558000000    -6.244000000    -4.766000000
H     1.120000000    -5.423000000    -4.540000000
H     0.854000000    -6.892000000    -4.789000000
O    -4.380000000    -8.035000000     3.896000000
H    -4.686000000    -8.776000000     3.372000000
H    -3.674000000    -7.650000000     3.377000000
O     0.715000000    -9.198000000     1.963000000
H     0.084000000    -8.940000000     1.291000000
H     1.256000000    -8.420000000     2.095000000
O    -4.577000000    -9.554000000     1.332000000
H    -4.070000000    -9.957000000     0.627000000
H    -4.268000000    -8.648000000     1.362000000
O    -0.690000000    -7.789000000    -4.655000000
H    -1.287000000    -8.123000000    -5.325000000
H    -1.232000000    -7.210000000    -4.119000000
O     0.582000000    -8.169000000    -2.141000000
H     0.162000000    -8.116000000    -3.000000000
H     1.428000000    -7.736000000    -2.261000000
O    -3.037000000    -4.678000000    -4.734000000
H    -3.876000000    -4.792000000    -4.288000000
H    -2.496000000    -5.401000000    -4.416000000
O     2.857000000    -5.516000000    -0.603000000
H     3.053000000    -5.168000000    -1.473000000
H     3.562000000    -6.140000000    -0.431000000
O    -5.029000000    -5.124000000    -2.602000000
H    -5.767000000    -5.072000000    -1.994000000
H    -4.276000000    -4.828000000    -2.090000000
O    -0.973000000    -8.045000000     0.004000000
H    -0.273000000    -7.997000000    -0.648000000
H    -1.125000000    -7.136000000     0.259000000
O    -2.313000000   -10.538000000    -0.458000000
H    -2.044000000    -9.700000000    -0.082000000
H    -2.313000000   -10.387000000    -1.403000000
O     1.232000000    -6.208000000     1.538000000
H     0.300000000    -6.020000000     1.430000000
H     1.658000000    -5.718000000     0.835000000
O    -4.245000000    -6.676000000     0.851000000
H    -4.914000000    -6.106000000     0.473000000
H    -3.418000000    -6.234000000     0.661000000
O     0.078000000    -4.433000000    -2.987000000
H     0.052000000    -3.907000000    -2.188000000
H    -0.648000000    -5.051000000    -2.891000000
O    -6.761000000    -5.168000000     0.030000000
H    -7.094000000    -4.796000000     0.847000000
H    -6.987000000    -6.097000000     0.081000000
O    -2.316000000    -6.579000000    -2.820000000
H    -2.520000000    -6.204000000    -1.964000000
H    -3.029000000    -7.196000000    -2.988000000
O    -4.466000000    -8.389000000    -2.380000000
H    -4.250000000    -7.996000000    -1.535000000
H    -5.423000000    -8.408000000    -2.398000000
