215
-1428.55560
C     0.835000000    -3.597000000    -4.072000000
H    -0.154000000    -3.862000000    -4.439000000
C     1.276000000    -3.796000000    -2.777000000
C     2.637000000    -3.447000000    -2.446000000
H     2.993000000    -3.470000000    -1.420000000
C     0.286000000    -4.171000000    -1.707000000
O    -1.022000000    -4.488000000    -2.216000000
H     0.206000000    -3.203000000    -1.191000000
O     0.749000000    -5.089000000    -0.684000000
C     0.459000000    -4.806000000     0.633000000
C     1.389000000    -4.064000000     1.305000000
H     2.353000000    -3.969000000     0.811000000
C     1.161000000    -3.548000000     2.571000000
O     2.245000000    -2.883000000     3.221000000
C    -0.107000000    -3.567000000     3.133000000
C    -0.348000000    -3.083000000     4.576000000
H    -1.264000000    -3.529000000     4.968000000
C    -0.521000000    -1.533000000     4.570000000
C    -1.805000000    -1.031000000     4.376000000
H    -2.663000000    -1.699000000     4.402000000
H     0.472000000    -3.486000000     5.174000000
C    -1.111000000    -4.178000000     2.339000000
H    -2.136000000    -3.943000000     2.614000000
C    -0.870000000    -4.814000000     1.148000000
C    -1.971000000    -5.367000000     0.342000000
H    -2.687000000    -5.928000000     0.946000000
H    -1.615000000    -6.182000000    -0.291000000
C    -2.643000000    -4.256000000    -0.549000000
C    -3.616000000    -3.473000000     0.122000000
H    -3.884000000    -3.737000000     1.142000000
C    -2.105000000    -3.864000000    -1.733000000
C    -2.567000000    -2.735000000    -2.393000000
H    -2.165000000    -2.516000000    -3.379000000
C    -3.536000000    -1.944000000    -1.780000000
O    -4.096000000    -0.903000000    -2.516000000
C    -3.697000000     0.378000000    -2.026000000
C    -3.223000000     1.265000000    -3.211000000
C    -3.482000000     2.655000000    -3.233000000
H    -4.073000000     3.067000000    -2.419000000
C    -2.484000000     0.707000000    -4.294000000
H    -2.293000000    -0.362000000    -4.245000000
O    -4.696000000     1.070000000    -1.250000000
H    -2.815000000     0.240000000    -1.384000000
C    -4.089000000    -2.305000000    -0.553000000
C    -5.199000000    -1.518000000     0.134000000
H    -5.640000000    -2.196000000     0.868000000
H    -6.015000000    -1.367000000    -0.575000000
C    -4.804000000    -0.183000000     0.799000000
C    -4.414000000    -0.200000000     2.170000000
H    -4.496000000    -1.107000000     2.762000000
C    -4.553000000     0.979000000     0.074000000
C    -4.042000000     2.105000000     0.740000000
H    -3.768000000     2.937000000     0.097000000
C    -3.721000000     2.111000000     2.083000000
O    -2.890000000     3.136000000     2.476000000
C    -1.480000000     3.016000000     2.678000000
C    -0.700000000     4.206000000     2.269000000
C    -1.117000000     5.023000000     1.283000000
H    -2.140000000     4.868000000     0.950000000
C     0.627000000     4.397000000     2.781000000
H     1.010000000     3.712000000     3.533000000
O    -1.141000000     2.608000000     4.040000000
H    -1.171000000     2.148000000     2.078000000
C    -4.005000000     0.952000000     2.827000000
C    -3.523000000     0.887000000     4.222000000
H    -4.125000000     0.149000000     4.756000000
H    -3.564000000     1.845000000     4.745000000
C    -2.088000000     0.387000000     4.224000000
C    -1.019000000     1.280000000     4.251000000
C     0.273000000     0.749000000     4.463000000
H     1.169000000     1.364000000     4.470000000
C     0.532000000    -0.581000000     4.706000000
O     1.808000000    -1.032000000     4.594000000
C     2.235000000    -1.478000000     3.300000000
H     1.628000000    -1.078000000     2.474000000
C     3.639000000    -0.960000000     3.035000000
C     4.486000000    -1.720000000     2.224000000
H     4.279000000    -2.760000000     1.988000000
C     3.986000000     0.358000000     3.416000000
H     3.242000000     1.064000000     3.776000000
C     5.292000000     0.777000000     3.063000000
O     5.640000000     2.088000000     3.272000000
C     6.178000000    -0.038000000     2.420000000
H     7.155000000     0.353000000     2.146000000
C     5.794000000    -1.251000000     1.946000000
O     6.699000000    -2.065000000     1.315000000
C     6.497000000    -2.844000000     0.205000000
C     5.740000000    -2.318000000    -0.833000000
H     5.407000000    -1.285000000    -0.767000000
C     6.857000000    -4.184000000     0.175000000
H     7.438000000    -4.637000000     0.974000000
C     6.583000000    -4.967000000    -0.953000000
H     6.879000000    -6.009000000    -1.036000000
C     5.819000000    -4.437000000    -1.945000000
H     5.648000000    -5.089000000    -2.798000000
C     5.386000000    -3.127000000    -1.909000000
O     4.782000000    -2.619000000    -3.088000000
C     3.491000000    -2.956000000    -3.463000000
C     3.027000000    -2.792000000    -4.735000000
H     3.594000000    -2.367000000    -5.559000000
C     1.723000000    -3.162000000    -5.094000000
O     1.307000000    -2.934000000    -6.362000000
C     0.166000000    -2.346000000    -6.658000000
C     0.148000000    -0.980000000    -6.319000000
H     0.964000000    -0.445000000    -5.840000000
C    -0.976000000    -3.036000000    -7.167000000
H    -0.991000000    -4.097000000    -7.403000000
C    -2.158000000    -2.335000000    -7.354000000
H    -3.040000000    -2.904000000    -7.635000000
C    -2.164000000    -0.984000000    -7.126000000
H    -3.097000000    -0.444000000    -7.264000000
C    -1.046000000    -0.292000000    -6.626000000
O    -1.096000000     1.074000000    -6.291000000
C    -1.934000000     1.598000000    -5.303000000
C    -2.079000000     2.970000000    -5.219000000
H    -1.465000000     3.554000000    -5.900000000
C    -2.949000000     3.510000000    -4.229000000
O    -3.061000000     4.899000000    -4.135000000
C    -3.093000000     5.564000000    -2.964000000
C    -1.899000000     5.918000000    -2.347000000
H    -0.971000000     5.486000000    -2.714000000
C    -4.317000000     5.966000000    -2.506000000
H    -5.214000000     5.757000000    -3.084000000
C    -4.400000000     6.679000000    -1.300000000
H    -5.363000000     7.104000000    -1.031000000
C    -3.221000000     6.981000000    -0.630000000
H    -3.319000000     7.455000000     0.344000000
C    -1.955000000     6.546000000    -1.099000000
O    -0.801000000     6.802000000    -0.370000000
C    -0.407000000     6.101000000     0.809000000
C     0.925000000     6.227000000     1.236000000
H     1.457000000     7.099000000     0.865000000
C     1.457000000     5.446000000     2.253000000
O     2.725000000     5.829000000     2.682000000
C     3.334000000     4.959000000     3.558000000
C     3.171000000     5.043000000     4.971000000
H     2.540000000     5.802000000     5.426000000
C     3.837000000     4.117000000     5.738000000
H     3.722000000     4.174000000     6.818000000
C     4.594000000     3.093000000     5.188000000
H     5.127000000     2.391000000     5.824000000
C     4.869000000     3.069000000     3.847000000
C     4.232000000     3.994000000     3.054000000
H     4.242000000     3.858000000     1.976000000
C     1.786000000     0.120000000    -0.932000000
H     2.725000000    -0.397000000    -1.111000000
C     0.781000000    -0.681000000    -0.351000000
H     0.911000000    -1.653000000     0.119000000
C    -0.384000000    -0.058000000     0.039000000
H    -1.085000000    -0.649000000     0.592000000
C    -0.656000000     1.222000000    -0.258000000
H    -1.555000000     1.745000000     0.058000000
C     0.326000000     1.956000000    -0.886000000
H     0.077000000     2.943000000    -1.266000000
C     1.570000000     1.484000000    -1.151000000
C     2.685000000     2.329000000    -1.802000000
O     2.494000000     3.434000000    -2.175000000
O     3.765000000     1.816000000    -2.129000000
O     1.320000000     1.893000000    -7.367000000
H     0.897000000     1.893000000    -6.509000000
H     2.084000000     1.326000000    -7.258000000
O     0.593000000     8.437000000    -2.389000000
H     1.069000000     8.844000000    -1.665000000
H     0.925000000     7.540000000    -2.420000000
O     5.083000000     4.514000000    -0.828000000
H     5.016000000     5.002000000    -1.649000000
H     4.362000000     3.885000000    -0.863000000
O     1.053000000     5.381000000    -5.394000000
H     1.041000000     4.430000000    -5.292000000
H     1.433000000     5.706000000    -4.578000000
O     1.801000000     5.859000000    -2.753000000
H     1.867000000     4.991000000    -2.356000000
H     2.698000000     6.193000000    -2.749000000
O     2.732000000     7.351000000    -6.718000000
H     2.375000000     6.589000000    -6.262000000
H     3.173000000     7.854000000    -6.033000000
O     4.688000000     0.486000000    -4.386000000
H     5.569000000     0.115000000    -4.328000000
H     4.528000000     0.859000000    -3.519000000
O     4.449000000     7.234000000    -2.471000000
H     4.451000000     7.927000000    -1.810000000
H     5.305000000     6.814000000    -2.380000000
O     3.732000000     3.479000000    -8.236000000
H     2.910000000     3.019000000    -8.063000000
H     4.312000000     3.210000000    -7.524000000
O     7.299000000     6.470000000    -2.435000000
H     8.048000000     5.928000000    -2.186000000
H     7.637000000     7.043000000    -3.123000000
O     6.541000000     6.458000000     0.601000000
H     5.956000000     5.887000000     0.103000000
H     5.982000000     6.843000000     1.276000000
O     3.448000000    -0.186000000    -6.858000000
H     4.237000000    -0.273000000    -7.393000000
H     3.753000000     0.217000000    -6.045000000
O     1.406000000     2.890000000    -4.513000000
H     1.458000000     3.133000000    -3.588000000
H     2.020000000     2.162000000    -4.605000000
O     8.927000000     0.960000000    -2.897000000
H     8.091000000     1.207000000    -2.501000000
H     8.995000000     0.017000000    -2.747000000
O     7.513000000     1.292000000    -5.181000000
H     8.131000000     1.352000000    -4.453000000
H     8.031000000     1.517000000    -5.954000000
O     5.477000000     2.735000000    -6.304000000
H     6.271000000     2.295000000    -5.999000000
H     5.154000000     3.206000000    -5.536000000
O     4.343000000     3.850000000    -4.073000000
H     4.854000000     3.053000000    -3.931000000
H     3.696000000     3.849000000    -3.368000000
O     5.500000000     6.715000000    -5.663000000
H     4.963000000     6.080000000    -5.189000000
H     5.939000000     7.218000000    -4.977000000
O     6.406000000     1.605000000    -1.364000000
H     5.478000000     1.419000000    -1.227000000
H     6.510000000     2.518000000    -1.094000000
