215
-1433.53047
C     1.672000000    -2.958000000    -3.826000000
H     0.648000000    -2.841000000    -4.173000000
C     1.930000000    -3.610000000    -2.579000000
C     3.250000000    -3.708000000    -2.205000000
H     3.517000000    -4.157000000    -1.252000000
C     0.709000000    -3.930000000    -1.703000000
O    -0.458000000    -4.210000000    -2.498000000
H     0.520000000    -3.030000000    -1.101000000
O     0.998000000    -5.076000000    -0.762000000
C     0.579000000    -4.816000000     0.449000000
C     1.469000000    -4.180000000     1.286000000
H     2.466000000    -3.989000000     0.896000000
C     1.139000000    -3.860000000     2.603000000
O     2.145000000    -3.154000000     3.218000000
C    -0.150000000    -3.984000000     3.045000000
C    -0.449000000    -3.351000000     4.363000000
H    -1.288000000    -3.925000000     4.762000000
C    -0.767000000    -1.892000000     4.220000000
C    -2.116000000    -1.542000000     4.119000000
H    -2.850000000    -2.344000000     4.116000000
H     0.386000000    -3.425000000     5.063000000
C    -1.115000000    -4.578000000     2.234000000
H    -2.143000000    -4.636000000     2.582000000
C    -0.805000000    -4.965000000     0.917000000
C    -1.908000000    -5.402000000    -0.130000000
H    -2.688000000    -5.890000000     0.459000000
H    -1.439000000    -6.142000000    -0.781000000
C    -2.371000000    -4.215000000    -0.899000000
C    -3.594000000    -3.616000000    -0.527000000
H    -4.056000000    -4.088000000     0.337000000
C    -1.722000000    -3.704000000    -2.028000000
C    -2.292000000    -2.604000000    -2.704000000
H    -1.802000000    -2.262000000    -3.612000000
C    -3.495000000    -2.007000000    -2.289000000
O    -3.814000000    -0.842000000    -2.914000000
C    -3.621000000     0.331000000    -2.201000000
C    -3.161000000     1.371000000    -3.219000000
C    -3.632000000     2.716000000    -3.173000000
H    -4.427000000     3.004000000    -2.490000000
C    -2.183000000     1.007000000    -4.183000000
H    -1.830000000    -0.021000000    -4.182000000
O    -4.856000000     0.774000000    -1.596000000
H    -2.827000000     0.197000000    -1.453000000
C    -4.157000000    -2.555000000    -1.168000000
C    -5.410000000    -1.892000000    -0.542000000
H    -6.013000000    -2.650000000    -0.038000000
H    -6.105000000    -1.660000000    -1.351000000
C    -5.052000000    -0.618000000     0.333000000
C    -4.884000000    -0.761000000     1.671000000
H    -5.158000000    -1.664000000     2.211000000
C    -4.877000000     0.616000000    -0.254000000
C    -4.362000000     1.697000000     0.527000000
H    -4.244000000     2.638000000    -0.004000000
C    -4.021000000     1.524000000     1.777000000
O    -3.466000000     2.561000000     2.479000000
C    -2.035000000     2.563000000     2.732000000
C    -1.347000000     3.933000000     2.382000000
C    -1.754000000     4.746000000     1.313000000
H    -2.567000000     4.393000000     0.683000000
C    -0.238000000     4.236000000     3.110000000
H     0.154000000     3.564000000     3.869000000
O    -1.905000000     2.175000000     4.131000000
H    -1.492000000     1.859000000     2.084000000
C    -4.372000000     0.327000000     2.456000000
C    -3.972000000     0.180000000     3.923000000
H    -4.691000000    -0.446000000     4.455000000
H    -4.185000000     1.148000000     4.381000000
C    -2.520000000    -0.213000000     4.095000000
C    -1.632000000     0.819000000     4.289000000
C    -0.247000000     0.463000000     4.516000000
H     0.440000000     1.288000000     4.682000000
C     0.169000000    -0.847000000     4.405000000
O     1.521000000    -1.199000000     4.352000000
C     2.010000000    -1.701000000     3.099000000
H     1.223000000    -1.488000000     2.361000000
C     3.321000000    -1.021000000     2.739000000
C     4.449000000    -1.715000000     2.320000000
H     4.520000000    -2.799000000     2.301000000
C     3.363000000     0.358000000     2.932000000
H     2.534000000     0.919000000     3.356000000
C     4.486000000     1.046000000     2.491000000
O     4.497000000     2.399000000     2.572000000
C     5.602000000     0.365000000     2.029000000
H     6.479000000     0.949000000     1.760000000
C     5.651000000    -1.024000000     1.980000000
O     6.810000000    -1.601000000     1.441000000
C     6.884000000    -2.627000000     0.636000000
C     6.068000000    -2.689000000    -0.521000000
H     5.472000000    -1.832000000    -0.825000000
C     7.703000000    -3.686000000     0.851000000
H     8.399000000    -3.615000000     1.682000000
C     7.761000000    -4.749000000    -0.017000000
H     8.476000000    -5.555000000     0.125000000
C     7.012000000    -4.733000000    -1.184000000
H     6.987000000    -5.608000000    -1.828000000
C     6.197000000    -3.720000000    -1.451000000
O     5.626000000    -3.613000000    -2.678000000
C     4.331000000    -3.329000000    -3.001000000
C     4.014000000    -2.678000000    -4.242000000
H     4.856000000    -2.441000000    -4.887000000
C     2.715000000    -2.431000000    -4.632000000
O     2.456000000    -2.060000000    -5.981000000
C     1.311000000    -1.512000000    -6.320000000
C     0.922000000    -0.272000000    -5.850000000
H     1.590000000     0.266000000    -5.183000000
C     0.467000000    -2.189000000    -7.238000000
H     0.712000000    -3.207000000    -7.532000000
C    -0.820000000    -1.670000000    -7.490000000
H    -1.556000000    -2.248000000    -8.044000000
C    -1.167000000    -0.391000000    -7.044000000
H    -2.198000000    -0.075000000    -7.183000000
C    -0.279000000     0.292000000    -6.175000000
O    -0.579000000     1.578000000    -5.834000000
C    -1.633000000     1.931000000    -5.005000000
C    -1.994000000     3.255000000    -4.891000000
H    -1.649000000     4.004000000    -5.600000000
C    -3.027000000     3.652000000    -4.000000000
O    -3.454000000     4.981000000    -3.963000000
C    -3.449000000     5.794000000    -2.880000000
C    -2.373000000     5.802000000    -1.940000000
H    -1.523000000     5.146000000    -2.113000000
C    -4.487000000     6.704000000    -2.774000000
H    -5.290000000     6.769000000    -3.503000000
C    -4.535000000     7.610000000    -1.711000000
H    -5.341000000     8.334000000    -1.618000000
C    -3.549000000     7.469000000    -0.716000000
H    -3.531000000     8.199000000     0.090000000
C    -2.506000000     6.583000000    -0.846000000
O    -1.427000000     6.756000000    -0.027000000
C    -1.059000000     5.933000000     1.025000000
C    -0.013000000     6.227000000     1.810000000
H     0.540000000     7.149000000     1.653000000
C     0.497000000     5.416000000     2.824000000
O     1.486000000     5.851000000     3.708000000
C     2.467000000     4.982000000     4.130000000
C     2.826000000     4.840000000     5.473000000
H     2.396000000     5.438000000     6.272000000
C     3.788000000     3.850000000     5.833000000
H     3.987000000     3.627000000     6.878000000
C     4.309000000     3.014000000     4.846000000
H     5.223000000     2.449000000     5.011000000
C     3.929000000     3.165000000     3.533000000
C     3.117000000     4.233000000     3.176000000
H     2.861000000     4.333000000     2.124000000
C     2.127000000     0.074000000    -2.024000000
H     3.063000000    -0.376000000    -2.344000000
C     1.407000000    -0.426000000    -0.927000000
H     1.736000000    -1.305000000    -0.378000000
C     0.208000000     0.159000000    -0.607000000
H    -0.356000000    -0.228000000     0.191000000
C    -0.196000000     1.383000000    -1.169000000
H    -1.176000000     1.773000000    -0.908000000
C     0.593000000     1.958000000    -2.170000000
H     0.371000000     2.839000000    -2.767000000
C     1.805000000     1.277000000    -2.613000000
C     2.748000000     1.913000000    -3.594000000
O     2.467000000     3.043000000    -3.985000000
O     3.840000000     1.484000000    -3.768000000
O     1.437000000     4.854000000    -5.708000000
H     0.764000000     5.493000000    -5.474000000
H     1.504000000     4.284000000    -4.941000000
O     6.092000000     0.602000000    -8.609000000
H     5.823000000     0.601000000    -7.690000000
H     6.570000000    -0.219000000    -8.720000000
O     6.598000000     5.836000000    -3.403000000
H     6.279000000     4.935000000    -3.353000000
H     6.116000000     6.220000000    -4.136000000
O     2.998000000     5.105000000    -2.173000000
H     3.576000000     4.793000000    -1.477000000
H     2.830000000     4.330000000    -2.709000000
O     5.689000000     0.444000000    -2.416000000
H     4.868000000     0.732000000    -2.815000000
H     6.109000000    -0.090000000    -3.090000000
O     4.641000000     0.193000000    -6.187000000
H     4.680000000    -0.748000000    -6.015000000
H     4.384000000     0.579000000    -5.350000000
O     6.890000000    -0.950000000    -4.540000000
H     7.244000000    -0.516000000    -5.316000000
H     7.630000000    -1.441000000    -4.181000000
O    -1.279000000     2.719000000    -8.458000000
H    -1.055000000     2.251000000    -7.653000000
H    -0.674000000     2.372000000    -9.113000000
O     3.795000000     3.152000000    -0.188000000
H     4.181000000     2.965000000     0.668000000
H     3.168000000     2.442000000    -0.328000000
O     6.422000000     5.285000000    -0.169000000
H     6.292000000     4.758000000    -0.958000000
H     7.349000000     5.522000000    -0.189000000
O     7.832000000     2.640000000    -5.576000000
H     8.362000000     1.862000000    -5.747000000
H     7.054000000     2.525000000    -6.121000000
O     3.879000000     7.118000000    -4.350000000
H     3.853000000     6.248000000    -4.748000000
H     3.501000000     6.995000000    -3.480000000
O     4.519000000     2.948000000    -9.106000000
H     5.245000000     2.325000000    -9.087000000
H     4.515000000     3.339000000    -8.232000000
O     3.931000000     3.505000000    -6.396000000
H     3.266000000     3.728000000    -5.744000000
H     4.283000000     2.665000000    -6.101000000
O     1.622000000     7.249000000    -2.406000000
H     1.335000000     7.551000000    -1.544000000
H     2.001000000     6.385000000    -2.242000000
O     2.939000000     0.543000000    -8.819000000
H     3.775000000     0.342000000    -8.398000000
H     2.726000000     1.427000000    -8.518000000
O     6.103000000     3.341000000    -3.348000000
H     5.355000000     2.819000000    -3.637000000
H     6.840000000     3.008000000    -3.862000000
O     3.654000000     5.993000000    -7.654000000
H     3.607000000     5.364000000    -6.934000000
H     4.447000000     6.499000000    -7.477000000
O     7.768000000     1.392000000    -1.140000000
H     7.835000000     2.176000000    -1.686000000
H     7.034000000     0.904000000    -1.512000000
