215
-1440.38091
C     1.938000000    -2.791000000    -3.992000000
H     0.913000000    -2.646000000    -4.322000000
C     2.186000000    -3.436000000    -2.776000000
C     3.507000000    -3.592000000    -2.330000000
H     3.643000000    -4.012000000    -1.337000000
C     0.941000000    -3.765000000    -1.947000000
O    -0.144000000    -4.246000000    -2.795000000
H     0.576000000    -2.823000000    -1.510000000
O     1.341000000    -4.650000000    -0.909000000
C     0.900000000    -4.509000000     0.371000000
C     1.750000000    -4.083000000     1.372000000
H     2.785000000    -3.878000000     1.109000000
C     1.265000000    -3.807000000     2.668000000
O     2.101000000    -3.148000000     3.522000000
C    -0.109000000    -4.009000000     2.954000000
C    -0.778000000    -3.639000000     4.255000000
H    -1.651000000    -4.294000000     4.290000000
C    -1.141000000    -2.165000000     4.226000000
C    -2.478000000    -1.831000000     3.928000000
H    -3.197000000    -2.599000000     3.655000000
H    -0.196000000    -3.881000000     5.147000000
C    -0.940000000    -4.504000000     1.934000000
H    -1.996000000    -4.673000000     2.131000000
C    -0.451000000    -4.771000000     0.644000000
C    -1.386000000    -5.307000000    -0.386000000
H    -2.315000000    -5.715000000     0.017000000
H    -0.969000000    -6.086000000    -1.027000000
C    -2.020000000    -4.234000000    -1.262000000
C    -3.082000000    -3.513000000    -0.784000000
H    -3.453000000    -3.775000000     0.203000000
C    -1.428000000    -3.868000000    -2.447000000
C    -1.853000000    -2.729000000    -3.087000000
H    -1.337000000    -2.335000000    -3.959000000
C    -2.938000000    -2.039000000    -2.604000000
O    -3.331000000    -0.869000000    -3.243000000
C    -3.075000000     0.372000000    -2.643000000
C    -2.483000000     1.409000000    -3.528000000
C    -2.476000000     2.733000000    -3.178000000
H    -2.839000000     3.113000000    -2.227000000
C    -1.763000000     1.038000000    -4.708000000
H    -1.691000000     0.003000000    -5.029000000
O    -4.392000000     0.804000000    -2.037000000
H    -2.311000000     0.280000000    -1.857000000
C    -3.629000000    -2.467000000    -1.436000000
C    -4.974000000    -1.833000000    -1.112000000
H    -5.665000000    -2.488000000    -0.576000000
H    -5.617000000    -1.510000000    -1.934000000
C    -4.874000000    -0.700000000    -0.168000000
C    -4.885000000    -0.967000000     1.234000000
H    -5.098000000    -1.936000000     1.678000000
C    -4.500000000     0.542000000    -0.645000000
C    -4.217000000     1.549000000     0.223000000
H    -3.826000000     2.538000000    -0.002000000
C    -4.334000000     1.383000000     1.623000000
O    -3.896000000     2.384000000     2.495000000
C    -2.429000000     2.405000000     2.819000000
C    -1.872000000     3.832000000     2.598000000
C    -2.565000000     4.799000000     1.809000000
H    -3.623000000     4.704000000     1.580000000
C    -0.520000000     4.106000000     2.918000000
H     0.121000000     3.365000000     3.388000000
O    -2.153000000     1.849000000     4.074000000
H    -1.947000000     1.775000000     2.057000000
C    -4.556000000     0.071000000     2.095000000
C    -4.339000000    -0.214000000     3.547000000
H    -4.949000000    -1.013000000     3.973000000
H    -4.720000000     0.605000000     4.162000000
C    -2.896000000    -0.484000000     3.885000000
C    -1.922000000     0.494000000     4.142000000
C    -0.635000000     0.171000000     4.464000000
H     0.121000000     0.908000000     4.721000000
C    -0.228000000    -1.164000000     4.475000000
O     1.134000000    -1.318000000     4.755000000
C     1.896000000    -1.669000000     3.591000000
H     1.294000000    -1.366000000     2.721000000
C     3.176000000    -0.917000000     3.475000000
C     4.160000000    -1.373000000     2.682000000
H     4.168000000    -2.373000000     2.255000000
C     3.346000000     0.287000000     4.128000000
H     2.580000000     0.719000000     4.767000000
C     4.509000000     1.040000000     3.951000000
O     4.613000000     2.238000000     4.588000000
C     5.531000000     0.507000000     3.148000000
H     6.488000000     1.020000000     3.199000000
C     5.388000000    -0.677000000     2.444000000
O     6.418000000    -1.193000000     1.664000000
C     6.429000000    -2.316000000     0.862000000
C     6.125000000    -2.208000000    -0.499000000
H     5.753000000    -1.266000000    -0.893000000
C     6.881000000    -3.556000000     1.371000000
H     7.067000000    -3.602000000     2.441000000
C     7.101000000    -4.625000000     0.505000000
H     7.454000000    -5.568000000     0.914000000
C     6.710000000    -4.549000000    -0.871000000
H     6.913000000    -5.360000000    -1.564000000
C     6.288000000    -3.318000000    -1.401000000
O     5.856000000    -3.229000000    -2.713000000
C     4.556000000    -3.186000000    -3.146000000
C     4.239000000    -2.557000000    -4.366000000
H     5.025000000    -2.129000000    -4.984000000
C     2.964000000    -2.331000000    -4.766000000
O     2.848000000    -1.707000000    -5.958000000
C     1.756000000    -1.191000000    -6.570000000
C     1.359000000     0.136000000    -6.302000000
H     1.957000000     0.868000000    -5.765000000
C     0.863000000    -2.117000000    -7.235000000
H     1.118000000    -3.171000000    -7.313000000
C    -0.298000000    -1.629000000    -7.823000000
H    -0.935000000    -2.339000000    -8.344000000
C    -0.668000000    -0.284000000    -7.655000000
H    -1.583000000     0.190000000    -8.001000000
C     0.175000000     0.525000000    -6.812000000
O    -0.319000000     1.740000000    -6.577000000
C    -1.081000000     2.011000000    -5.503000000
C    -1.006000000     3.268000000    -4.939000000
H    -0.432000000     3.979000000    -5.527000000
C    -1.763000000     3.649000000    -3.838000000
O    -1.699000000     5.009000000    -3.417000000
C    -2.628000000     5.567000000    -2.544000000
C    -2.084000000     5.987000000    -1.362000000
H    -1.047000000     5.795000000    -1.095000000
C    -3.852000000     5.931000000    -3.012000000
H    -4.120000000     5.619000000    -4.018000000
C    -4.665000000     6.674000000    -2.151000000
H    -5.627000000     7.079000000    -2.454000000
C    -4.191000000     7.050000000    -0.895000000
H    -4.892000000     7.603000000    -0.275000000
C    -2.949000000     6.730000000    -0.468000000
O    -2.642000000     6.927000000     0.861000000
C    -1.891000000     5.960000000     1.449000000
C    -0.651000000     6.274000000     1.837000000
H    -0.267000000     7.289000000     1.770000000
C     0.119000000     5.224000000     2.442000000
O     1.436000000     5.413000000     2.823000000
C     2.064000000     4.822000000     3.891000000
C     1.552000000     4.935000000     5.179000000
H     0.694000000     5.581000000     5.348000000
C     2.060000000     4.199000000     6.246000000
H     1.525000000     4.210000000     7.192000000
C     3.039000000     3.258000000     6.031000000
H     3.305000000     2.654000000     6.895000000
C     3.596000000     3.149000000     4.753000000
C     3.158000000     3.975000000     3.668000000
H     3.592000000     3.808000000     2.685000000
C     2.708000000    -0.502000000    -0.982000000
H     3.668000000    -0.998000000    -0.867000000
C     1.659000000    -0.790000000    -0.070000000
H     1.739000000    -1.570000000     0.683000000
C     0.421000000    -0.193000000    -0.259000000
H    -0.438000000    -0.486000000     0.321000000
C     0.338000000     0.813000000    -1.224000000
H    -0.632000000     1.275000000    -1.387000000
C     1.414000000     1.180000000    -2.065000000
H     1.236000000     1.978000000    -2.782000000
C     2.601000000     0.581000000    -1.914000000
C     3.738000000     0.978000000    -2.857000000
O     3.578000000     1.836000000    -3.679000000
O     4.784000000     0.370000000    -2.839000000
O     9.450000000    -1.773000000    -2.968000000
H     9.656000000    -1.369000000    -2.125000000
H     8.660000000    -1.320000000    -3.263000000
O     5.025000000     4.591000000    -6.081000000
H     5.237000000     4.900000000    -5.200000000
H     4.442000000     3.845000000    -5.940000000
O     2.422000000     4.064000000    -4.563000000
H     2.028000000     4.469000000    -3.790000000
H     2.629000000     3.171000000    -4.286000000
O     6.584000000     6.239000000    -3.836000000
H     6.264000000     5.343000000    -3.944000000
H     5.796000000     6.755000000    -3.668000000
O     3.258000000     4.336000000    -0.860000000
H     3.689000000     3.483000000    -0.913000000
H     3.851000000     4.872000000    -0.333000000
O     7.216000000    -0.444000000    -3.508000000
H     6.308000000    -0.263000000    -3.266000000
H     7.319000000    -0.043000000    -4.371000000
O     5.188000000     1.687000000    -5.855000000
H     6.080000000     1.492000000    -5.569000000
H     4.671000000     1.684000000    -5.050000000
O     7.778000000    -3.502000000    -5.885000000
H     8.568000000    -3.999000000    -6.097000000
H     7.945000000    -3.148000000    -5.011000000
O     2.195000000     4.939000000    -7.320000000
H     2.375000000     4.840000000    -6.385000000
H     2.214000000     4.045000000    -7.663000000
O     5.091000000     2.348000000     0.602000000
H     5.169000000     1.672000000     1.275000000
H     5.360000000     1.913000000    -0.207000000
O     4.891000000     6.259000000     0.538000000
H     5.186000000     6.001000000     1.412000000
H     5.577000000     6.845000000     0.217000000
O     7.807000000     1.510000000    -5.489000000
H     8.259000000     2.074000000    -4.861000000
H     7.708000000     2.053000000    -6.271000000
O     8.423000000     3.776000000    -0.569000000
H     8.598000000     3.745000000     0.372000000
H     7.864000000     3.016000000    -0.734000000
O     4.574000000     0.745000000    -8.363000000
H     5.354000000     1.072000000    -8.811000000
H     4.772000000     0.846000000    -7.432000000
O     0.778000000     4.250000000    -1.865000000
H     1.678000000     4.222000000    -1.539000000
H     0.328000000     3.554000000    -1.387000000
O     3.339000000    -1.525000000    -9.254000000
H     3.834000000    -0.754000000    -8.975000000
H     2.675000000    -1.642000000    -8.575000000
O     1.013000000     6.797000000    -2.892000000
H     1.747000000     6.967000000    -3.482000000
H     0.916000000     5.845000000    -2.898000000
O     5.576000000     3.623000000    -3.450000000
H     4.892000000     2.967000000    -3.587000000
H     6.088000000     3.285000000    -2.715000000
O     6.791000000     1.698000000    -1.679000000
H     7.550000000     1.487000000    -2.222000000
H     6.189000000     0.965000000    -1.813000000
