215
-1435.78964
C     1.466000000    -2.127000000    -4.066000000
H     0.579000000    -1.546000000    -4.306000000
C     1.338000000    -3.244000000    -3.263000000
C     2.573000000    -3.952000000    -2.998000000
H     2.704000000    -4.785000000    -2.312000000
C     0.049000000    -3.466000000    -2.419000000
O    -1.035000000    -3.584000000    -3.308000000
H    -0.001000000    -2.668000000    -1.664000000
O     0.277000000    -4.733000000    -1.689000000
C    -0.094000000    -4.752000000    -0.408000000
C     0.856000000    -4.608000000     0.549000000
H     1.917000000    -4.716000000     0.339000000
C     0.485000000    -4.238000000     1.867000000
O     1.435000000    -3.851000000     2.736000000
C    -0.891000000    -4.211000000     2.212000000
C    -1.258000000    -3.952000000     3.664000000
H    -2.218000000    -4.457000000     3.784000000
C    -1.372000000    -2.500000000     3.998000000
C    -2.602000000    -1.927000000     4.027000000
H    -3.471000000    -2.484000000     3.689000000
H    -0.512000000    -4.427000000     4.304000000
C    -1.822000000    -4.508000000     1.278000000
H    -2.859000000    -4.552000000     1.600000000
C    -1.504000000    -4.775000000    -0.102000000
C    -2.581000000    -4.948000000    -1.186000000
H    -3.446000000    -5.406000000    -0.701000000
H    -2.161000000    -5.642000000    -1.916000000
C    -2.915000000    -3.600000000    -1.725000000
C    -3.993000000    -2.907000000    -1.179000000
H    -4.579000000    -3.461000000    -0.451000000
C    -2.177000000    -3.084000000    -2.867000000
C    -2.505000000    -1.804000000    -3.338000000
H    -1.882000000    -1.347000000    -4.103000000
C    -3.609000000    -1.201000000    -2.794000000
O    -3.729000000     0.102000000    -3.193000000
C    -3.241000000     1.143000000    -2.331000000
C    -2.492000000     2.252000000    -3.145000000
C    -2.315000000     3.538000000    -2.490000000
H    -2.669000000     3.773000000    -1.489000000
C    -1.905000000     1.882000000    -4.354000000
H    -2.100000000     0.965000000    -4.905000000
O    -4.420000000     1.713000000    -1.650000000
H    -2.569000000     0.732000000    -1.563000000
C    -4.266000000    -1.659000000    -1.632000000
C    -5.421000000    -0.926000000    -1.002000000
H    -6.150000000    -1.635000000    -0.605000000
H    -5.975000000    -0.409000000    -1.788000000
C    -4.931000000     0.049000000     0.033000000
C    -4.781000000    -0.390000000     1.349000000
H    -5.147000000    -1.369000000     1.649000000
C    -4.604000000     1.366000000    -0.308000000
C    -4.067000000     2.198000000     0.644000000
H    -3.587000000     3.148000000     0.422000000
C    -3.860000000     1.688000000     1.926000000
O    -3.261000000     2.498000000     2.900000000
C    -1.856000000     2.393000000     3.230000000
C    -1.138000000     3.723000000     3.386000000
C    -1.628000000     4.820000000     2.707000000
H    -2.514000000     4.645000000     2.102000000
C     0.092000000     3.779000000     3.988000000
H     0.486000000     2.855000000     4.403000000
O    -1.614000000     1.602000000     4.466000000
H    -1.266000000     1.874000000     2.461000000
C    -4.324000000     0.494000000     2.339000000
C    -4.179000000    -0.034000000     3.771000000
H    -4.903000000    -0.815000000     4.011000000
H    -4.297000000     0.806000000     4.459000000
C    -2.759000000    -0.576000000     4.095000000
C    -1.599000000     0.225000000     4.345000000
C    -0.321000000    -0.357000000     4.578000000
H     0.541000000     0.238000000     4.868000000
C    -0.268000000    -1.714000000     4.421000000
O     0.999000000    -2.278000000     4.423000000
C     1.422000000    -2.492000000     3.091000000
H     0.693000000    -1.949000000     2.471000000
C     2.783000000    -1.888000000     2.905000000
C     3.846000000    -2.706000000     2.389000000
H     3.703000000    -3.780000000     2.307000000
C     3.016000000    -0.545000000     2.929000000
H     2.205000000     0.128000000     3.194000000
C     4.220000000    -0.017000000     2.596000000
O     4.396000000     1.360000000     2.530000000
C     5.266000000    -0.810000000     2.213000000
H     6.246000000    -0.382000000     2.020000000
C     5.076000000    -2.142000000     2.003000000
O     5.979000000    -2.802000000     1.216000000
C     5.728000000    -3.826000000     0.417000000
C     5.253000000    -3.559000000    -0.844000000
H     4.987000000    -2.551000000    -1.151000000
C     6.181000000    -5.083000000     0.709000000
H     6.803000000    -5.262000000     1.583000000
C     6.089000000    -6.109000000    -0.259000000
H     6.449000000    -7.124000000    -0.114000000
C     5.544000000    -5.825000000    -1.553000000
H     5.517000000    -6.651000000    -2.259000000
C     5.188000000    -4.538000000    -1.869000000
O     4.924000000    -4.313000000    -3.188000000
C     3.803000000    -3.610000000    -3.558000000
C     3.847000000    -2.531000000    -4.402000000
H     4.825000000    -2.280000000    -4.804000000
C     2.679000000    -1.856000000    -4.691000000
O     2.817000000    -0.796000000    -5.581000000
C     1.807000000    -0.108000000    -6.261000000
C     1.182000000     1.049000000    -5.761000000
H     1.609000000     1.517000000    -4.878000000
C     1.468000000    -0.670000000    -7.511000000
H     1.960000000    -1.572000000    -7.867000000
C     0.416000000    -0.163000000    -8.235000000
H     0.127000000    -0.616000000    -9.180000000
C    -0.217000000     0.978000000    -7.735000000
H    -1.064000000     1.452000000    -8.225000000
C     0.167000000     1.565000000    -6.551000000
O    -0.506000000     2.705000000    -6.180000000
C    -1.140000000     2.885000000    -4.982000000
C    -0.952000000     4.087000000    -4.381000000
H    -0.374000000     4.858000000    -4.886000000
C    -1.367000000     4.370000000    -3.121000000
O    -1.028000000     5.648000000    -2.551000000
C    -1.658000000     6.324000000    -1.547000000
C    -1.129000000     6.295000000    -0.212000000
H    -0.227000000     5.718000000    -0.025000000
C    -2.806000000     7.044000000    -1.780000000
H    -3.184000000     7.014000000    -2.798000000
C    -3.456000000     7.774000000    -0.878000000
H    -4.358000000     8.366000000    -1.007000000
C    -2.929000000     7.770000000     0.395000000
H    -3.449000000     8.389000000     1.122000000
C    -1.813000000     7.065000000     0.705000000
O    -1.390000000     7.153000000     2.015000000
C    -0.924000000     6.030000000     2.677000000
C     0.208000000     6.180000000     3.476000000
H     0.777000000     7.083000000     3.681000000
C     0.808000000     5.019000000     3.980000000
O     2.047000000     4.993000000     4.640000000
C     2.908000000     3.945000000     4.693000000
C     3.584000000     3.715000000     5.943000000
H     3.425000000     4.339000000     6.818000000
C     4.597000000     2.745000000     5.971000000
H     5.090000000     2.435000000     6.889000000
C     4.809000000     1.912000000     4.833000000
H     5.538000000     1.106000000     4.820000000
C     4.038000000     2.102000000     3.657000000
C     3.157000000     3.157000000     3.530000000
H     2.643000000     3.391000000     2.601000000
C     2.782000000     0.417000000    -0.780000000
H     3.716000000    -0.112000000    -0.950000000
C     1.682000000    -0.208000000    -0.203000000
H     1.855000000    -1.254000000     0.038000000
C     0.440000000     0.423000000    -0.030000000
H    -0.399000000    -0.085000000     0.344000000
C     0.275000000     1.761000000    -0.415000000
H    -0.716000000     2.207000000    -0.428000000
C     1.457000000     2.438000000    -0.898000000
H     1.296000000     3.471000000    -1.194000000
C     2.661000000     1.775000000    -1.118000000
C     3.775000000     2.510000000    -1.737000000
O     3.575000000     3.494000000    -2.483000000
O     4.918000000     2.089000000    -1.518000000
O     5.400000000     6.340000000     0.053000000
H     6.324000000     6.557000000     0.184000000
H     4.987000000     6.538000000     0.893000000
O     6.440000000     3.737000000    -0.110000000
H     6.229000000     4.668000000    -0.174000000
H     5.946000000     3.330000000    -0.822000000
O     3.344000000     7.262000000    -3.695000000
H     4.181000000     7.620000000    -3.399000000
H     3.132000000     6.585000000    -3.053000000
O     3.186000000     5.819000000    -1.329000000
H     3.242000000     4.921000000    -1.656000000
H     3.899000000     5.888000000    -0.694000000
O     8.528000000    -1.466000000    -3.869000000
H     8.446000000    -1.058000000    -3.007000000
H     9.390000000    -1.882000000    -3.855000000
O     6.088000000     2.134000000    -4.044000000
H     6.470000000     3.000000000    -4.183000000
H     5.766000000     2.155000000    -3.143000000
O     5.407000000     8.253000000    -2.515000000
H     4.902000000     8.423000000    -1.720000000
H     6.319000000     8.250000000    -2.224000000
O     6.023000000     4.881000000    -7.278000000
H     6.805000000     4.486000000    -7.664000000
H     5.386000000     4.168000000    -7.244000000
O     1.696000000     8.308000000    -0.720000000
H     2.394000000     8.934000000    -0.525000000
H     2.144000000     7.466000000    -0.795000000
O     9.249000000     4.186000000    -0.112000000
H     9.681000000     4.358000000    -0.949000000
H     8.348000000     3.968000000    -0.348000000
O     8.071000000     5.372000000    -4.363000000
H     7.635000000     5.203000000    -3.528000000
H     7.549000000     6.064000000    -4.770000000
O     7.034000000     2.294000000     2.069000000
H     6.138000000     2.092000000     2.337000000
H     6.933000000     2.884000000     1.322000000
O     4.188000000     2.873000000    -7.254000000
H     4.309000000     1.925000000    -7.211000000
H     3.621000000     3.077000000    -6.510000000
O     2.877000000     4.091000000    -5.181000000
H     3.117000000     5.015000000    -5.114000000
H     3.344000000     3.669000000    -4.460000000
O     6.848000000     0.291000000    -5.780000000
H     6.559000000     0.986000000    -5.188000000
H     7.227000000    -0.373000000    -5.203000000
O     9.516000000     0.693000000    -0.853000000
H     9.423000000    -0.051000000    -0.258000000
H     8.630000000     1.046000000    -0.936000000
O     5.877000000     4.803000000    -2.833000000
H     5.026000000     4.365000000    -2.814000000
H     5.680000000     5.719000000    -2.639000000
O     0.871000000     7.747000000    -4.652000000
H     0.681000000     6.975000000    -5.185000000
H     1.770000000     7.615000000    -4.353000000
O     6.536000000     0.007000000    -1.732000000
H     5.801000000     0.518000000    -1.393000000
H     6.275000000    -0.226000000    -2.623000000
