215
-1448.18913
C    -2.630000000    -4.171000000     0.585000000
H    -2.713000000    -4.321000000    -0.488000000
C    -3.058000000    -3.054000000     1.251000000
C    -3.020000000    -3.006000000     2.634000000
H    -3.525000000    -2.131000000     3.037000000
C    -3.554000000    -1.824000000     0.417000000
O    -4.138000000    -2.335000000    -0.861000000
H    -2.695000000    -1.196000000     0.140000000
O    -4.446000000    -1.057000000     1.209000000
C    -4.379000000     0.329000000     1.138000000
C    -3.874000000     0.945000000     2.274000000
H    -3.495000000     0.349000000     3.101000000
C    -3.541000000     2.295000000     2.183000000
O    -2.881000000     2.869000000     3.174000000
C    -3.875000000     3.087000000     1.063000000
C    -3.431000000     4.505000000     0.916000000
H    -4.042000000     5.053000000     0.196000000
C    -1.985000000     4.556000000     0.418000000
C    -1.740000000     4.640000000    -0.960000000
H    -2.501000000     4.804000000    -1.719000000
H    -3.530000000     4.891000000     1.933000000
C    -4.417000000     2.401000000    -0.042000000
H    -4.763000000     2.999000000    -0.882000000
C    -4.691000000     1.008000000    -0.044000000
C    -5.347000000     0.275000000    -1.200000000
H    -6.039000000     0.956000000    -1.699000000
H    -5.963000000    -0.559000000    -0.857000000
C    -4.223000000    -0.307000000    -2.120000000
C    -3.647000000     0.496000000    -3.100000000
H    -3.969000000     1.512000000    -3.314000000
C    -3.736000000    -1.550000000    -1.917000000
C    -2.776000000    -2.102000000    -2.698000000
H    -2.403000000    -3.121000000    -2.626000000
C    -2.250000000    -1.398000000    -3.743000000
O    -1.159000000    -1.937000000    -4.487000000
C     0.135000000    -1.561000000    -4.019000000
C     1.182000000    -2.714000000    -3.948000000
C     2.588000000    -2.520000000    -4.025000000
H     2.934000000    -1.494000000    -3.933000000
C     0.686000000    -3.955000000    -3.648000000
H    -0.385000000    -4.141000000    -3.680000000
O     0.704000000    -0.532000000    -4.851000000
H     0.147000000    -1.228000000    -2.970000000
C    -2.663000000    -0.062000000    -3.926000000
C    -2.165000000     0.674000000    -5.113000000
H    -3.018000000     1.290000000    -5.404000000
H    -1.769000000     0.037000000    -5.906000000
C    -0.921000000     1.415000000    -4.663000000
C    -1.068000000     2.720000000    -4.048000000
H    -2.071000000     3.137000000    -4.014000000
C     0.400000000     0.799000000    -4.627000000
C     1.440000000     1.560000000    -4.157000000
H     2.414000000     1.082000000    -4.224000000
C     1.300000000     2.781000000    -3.522000000
O     2.374000000     3.235000000    -2.902000000
C     2.379000000     3.148000000    -1.481000000
C     3.759000000     2.867000000    -0.953000000
C     4.430000000     1.790000000    -1.591000000
H     3.978000000     1.208000000    -2.390000000
C     4.264000000     3.402000000     0.233000000
H     3.699000000     4.112000000     0.832000000
O     1.923000000     4.379000000    -0.984000000
H     1.724000000     2.342000000    -1.120000000
C     0.068000000     3.389000000    -3.478000000
C    -0.177000000     4.722000000    -2.887000000
H    -1.020000000     5.202000000    -3.389000000
H     0.651000000     5.396000000    -3.117000000
C    -0.398000000     4.672000000    -1.414000000
C     0.655000000     4.477000000    -0.478000000
C     0.391000000     4.390000000     0.880000000
H     1.149000000     4.203000000     1.636000000
C    -0.932000000     4.460000000     1.360000000
O    -1.071000000     4.225000000     2.667000000
C    -1.410000000     2.894000000     2.980000000
H    -1.132000000     2.236000000     2.144000000
C    -0.643000000     2.313000000     4.185000000
C    -1.274000000     1.542000000     5.145000000
H    -2.352000000     1.414000000     5.094000000
C     0.735000000     2.560000000     4.308000000
H     1.219000000     3.267000000     3.639000000
C     1.477000000     1.895000000     5.309000000
O     2.841000000     2.024000000     5.473000000
C     0.866000000     1.080000000     6.225000000
H     1.451000000     0.543000000     6.967000000
C    -0.549000000     0.897000000     6.115000000
O    -1.136000000     0.050000000     7.077000000
C    -2.003000000    -0.921000000     6.654000000
C    -1.672000000    -2.111000000     5.934000000
H    -0.694000000    -2.257000000     5.484000000
C    -3.310000000    -0.832000000     7.157000000
H    -3.555000000     0.011000000     7.798000000
C    -4.280000000    -1.799000000     6.894000000
H    -5.268000000    -1.522000000     7.253000000
C    -3.976000000    -2.874000000     6.101000000
H    -4.719000000    -3.598000000     5.776000000
C    -2.678000000    -3.040000000     5.614000000
O    -2.334000000    -4.031000000     4.773000000
C    -2.376000000    -3.993000000     3.381000000
C    -1.981000000    -5.122000000     2.728000000
H    -1.446000000    -5.921000000     3.235000000
C    -2.147000000    -5.210000000     1.337000000
O    -1.491000000    -6.298000000     0.747000000
C    -1.337000000    -6.555000000    -0.627000000
C    -0.187000000    -6.407000000    -1.297000000
H     0.658000000    -5.960000000    -0.779000000
C    -2.459000000    -7.141000000    -1.274000000
H    -3.331000000    -7.336000000    -0.656000000
C    -2.343000000    -7.496000000    -2.662000000
H    -3.166000000    -7.948000000    -3.209000000
C    -1.220000000    -7.208000000    -3.357000000
H    -1.251000000    -7.311000000    -4.439000000
C    -0.102000000    -6.661000000    -2.698000000
O     1.028000000    -6.371000000    -3.430000000
C     1.484000000    -5.050000000    -3.493000000
C     2.824000000    -4.886000000    -3.632000000
H     3.399000000    -5.808000000    -3.633000000
C     3.387000000    -3.657000000    -3.846000000
O     4.757000000    -3.518000000    -3.819000000
C     5.411000000    -2.292000000    -3.817000000
C     5.500000000    -1.577000000    -2.650000000
H     5.193000000    -2.046000000    -1.719000000
C     5.722000000    -1.710000000    -4.994000000
H     5.543000000    -2.298000000    -5.890000000
C     6.250000000    -0.468000000    -5.044000000
H     6.532000000     0.003000000    -5.982000000
C     6.526000000     0.169000000    -3.785000000
H     7.039000000     1.126000000    -3.745000000
C     6.072000000    -0.347000000    -2.630000000
O     6.348000000     0.313000000    -1.457000000
C     5.650000000     1.367000000    -0.994000000
C     6.152000000     1.919000000     0.177000000
H     7.086000000     1.559000000     0.600000000
C     5.442000000     2.924000000     0.810000000
O     5.873000000     3.273000000     2.054000000
C     5.029000000     3.526000000     3.073000000
C     4.762000000     4.865000000     3.438000000
H     5.175000000     5.625000000     2.781000000
C     4.166000000     5.214000000     4.630000000
H     3.989000000     6.251000000     4.905000000
C     3.590000000     4.274000000     5.426000000
H     3.057000000     4.526000000     6.339000000
C     3.662000000     2.955000000     4.946000000
C     4.288000000     2.592000000     3.764000000
H     4.312000000     1.550000000     3.453000000
C     0.500000000    -1.654000000     1.891000000
H     0.243000000    -2.167000000     2.814000000
C    -0.282000000    -0.622000000     1.357000000
H    -1.112000000    -0.326000000     1.993000000
C    -0.065000000     0.013000000     0.089000000
H    -0.669000000     0.799000000    -0.394000000
C     1.050000000    -0.398000000    -0.645000000
H     1.320000000     0.087000000    -1.579000000
C     1.900000000    -1.417000000    -0.077000000
H     2.758000000    -1.734000000    -0.664000000
C     1.669000000    -1.998000000     1.150000000
C     2.571000000    -3.003000000     1.715000000
O     3.295000000    -3.716000000     1.036000000
O     2.688000000    -2.957000000     2.921000000
O     1.418000000    -6.897000000     3.597000000
H     2.077000000    -7.052000000     4.273000000
H     1.920000000    -6.602000000     2.837000000
O     6.138000000    -1.348000000     4.669000000
H     6.010000000    -1.285000000     3.722000000
H     6.440000000    -2.245000000     4.810000000
O     2.543000000    -9.264000000     1.834000000
H     2.791000000    -8.584000000     1.208000000
H     1.790000000    -8.899000000     2.299000000
O     6.613000000    -3.956000000     5.139000000
H     7.142000000    -4.666000000     5.502000000
H     5.904000000    -4.399000000     4.673000000
O     6.500000000    -6.394000000     1.922000000
H     7.438000000    -6.202000000     1.891000000
H     6.151000000    -6.015000000     1.115000000
O     6.481000000    -7.336000000    -1.926000000
H     7.350000000    -7.088000000    -2.243000000
H     6.241000000    -6.638000000    -1.316000000
O     4.239000000    -4.919000000     3.870000000
H     3.778000000    -4.203000000     3.433000000
H     4.874000000    -5.225000000     3.222000000
O     5.979000000    -7.834000000     4.130000000
H     6.027000000    -7.324000000     3.321000000
H     6.608000000    -7.414000000     4.716000000
O     3.664000000    -1.883000000     5.397000000
H     4.562000000    -1.771000000     5.086000000
H     3.128000000    -1.834000000     4.605000000
O     3.380000000    -7.434000000    -0.681000000
H     4.021000000    -6.854000000    -1.093000000
H     3.122000000    -8.038000000    -1.378000000
O     7.030000000    -2.890000000     0.089000000
H     7.105000000    -1.990000000    -0.229000000
H     7.767000000    -3.349000000    -0.314000000
O     2.101000000    -3.647000000     6.963000000
H     1.800000000    -4.058000000     6.152000000
H     2.679000000    -2.940000000     6.673000000
O     5.513000000    -2.036000000     2.061000000
H     4.651000000    -2.418000000     1.897000000
H     6.107000000    -2.539000000     1.504000000
O    -0.300000000    -8.358000000     5.123000000
H    -0.330000000    -7.919000000     5.973000000
H     0.040000000    -7.693000000     4.523000000
O    -0.606000000    -5.759000000     6.121000000
H    -1.230000000    -5.070000000     5.892000000
H     0.202000000    -5.508000000     5.674000000
O     1.157000000    -4.093000000     4.508000000
H     1.004000000    -4.869000000     3.968000000
H     1.859000000    -3.623000000     4.058000000
O     2.552000000    -6.082000000     1.456000000
H     2.913000000    -6.453000000     0.651000000
H     2.761000000    -5.150000000     1.405000000
O     3.589000000    -7.460000000     5.340000000
H     4.239000000    -7.917000000     4.806000000
H     4.102000000    -7.029000000     6.024000000
O     5.295000000    -4.911000000    -0.158000000
H     4.484000000    -4.562000000     0.212000000
H     5.914000000    -4.182000000    -0.107000000
