215
-1415.31147
C     1.847000000    -3.593000000    -2.699000000
H     0.835000000    -3.344000000    -3.009000000
C     2.099000000    -4.150000000    -1.457000000
C     3.425000000    -4.489000000    -1.148000000
H     3.682000000    -4.809000000    -0.141000000
C     0.994000000    -4.346000000    -0.360000000
O    -0.209000000    -4.875000000    -0.911000000
H     0.785000000    -3.282000000    -0.177000000
O     1.373000000    -5.079000000     0.829000000
C     1.192000000    -4.421000000     2.001000000
C     2.205000000    -3.515000000     2.462000000
H     3.230000000    -3.484000000     2.104000000
C     1.952000000    -2.694000000     3.581000000
O     2.847000000    -1.702000000     3.946000000
C     0.653000000    -2.734000000     4.157000000
C     0.301000000    -1.738000000     5.290000000
H    -0.479000000    -2.204000000     5.896000000
C    -0.259000000    -0.441000000     4.703000000
C    -1.646000000    -0.279000000     4.650000000
H    -2.308000000    -1.110000000     4.878000000
H     1.195000000    -1.453000000     5.849000000
C    -0.370000000    -3.473000000     3.543000000
H    -1.378000000    -3.287000000     3.906000000
C    -0.074000000    -4.327000000     2.524000000
C    -1.236000000    -5.065000000     1.777000000
H    -1.963000000    -5.346000000     2.542000000
H    -0.807000000    -6.014000000     1.448000000
C    -1.891000000    -4.282000000     0.702000000
C    -3.085000000    -3.675000000     1.049000000
H    -3.526000000    -3.719000000     2.042000000
C    -1.394000000    -4.236000000    -0.615000000
C    -2.091000000    -3.563000000    -1.561000000
H    -1.757000000    -3.527000000    -2.595000000
C    -3.192000000    -2.830000000    -1.188000000
O    -3.754000000    -1.985000000    -2.159000000
C    -3.679000000    -0.506000000    -2.012000000
C    -3.292000000     0.268000000    -3.274000000
C    -3.927000000     1.428000000    -3.676000000
H    -4.650000000     1.882000000    -3.003000000
C    -2.394000000    -0.360000000    -4.144000000
H    -2.134000000    -1.405000000    -3.998000000
O    -4.834000000     0.103000000    -1.385000000
H    -2.873000000    -0.119000000    -1.372000000
C    -3.737000000    -2.877000000     0.096000000
C    -5.068000000    -2.162000000     0.477000000
H    -5.611000000    -2.623000000     1.306000000
H    -5.746000000    -2.307000000    -0.367000000
C    -4.879000000    -0.711000000     0.881000000
C    -4.573000000    -0.443000000     2.224000000
H    -4.563000000    -1.206000000     2.997000000
C    -4.853000000     0.331000000    -0.041000000
C    -4.541000000     1.593000000     0.336000000
H    -4.431000000     2.349000000    -0.437000000
C    -4.192000000     1.856000000     1.657000000
O    -3.643000000     3.046000000     1.936000000
C    -2.218000000     3.124000000     1.949000000
C    -1.663000000     4.133000000     0.994000000
C    -2.445000000     4.802000000    -0.029000000
H    -3.510000000     4.595000000    -0.099000000
C    -0.267000000     4.304000000     1.058000000
H     0.335000000     3.740000000     1.765000000
O    -1.777000000     3.219000000     3.285000000
H    -1.892000000     2.121000000     1.638000000
C    -4.178000000     0.854000000     2.661000000
C    -3.648000000     1.112000000     4.085000000
H    -4.258000000     0.583000000     4.820000000
H    -3.942000000     2.144000000     4.286000000
C    -2.218000000     0.953000000     4.211000000
C    -1.346000000     2.021000000     3.854000000
C     0.032000000     1.879000000     3.977000000
H     0.720000000     2.646000000     3.630000000
C     0.531000000     0.663000000     4.399000000
O     1.903000000     0.469000000     4.479000000
C     2.527000000    -0.357000000     3.508000000
H     1.850000000    -0.443000000     2.645000000
C     3.681000000     0.296000000     2.872000000
C     4.574000000    -0.433000000     2.023000000
H     4.325000000    -1.461000000     1.772000000
C     3.910000000     1.660000000     3.073000000
H     3.212000000     2.297000000     3.612000000
C     5.098000000     2.226000000     2.537000000
O     5.361000000     3.582000000     2.628000000
C     5.843000000     1.511000000     1.648000000
H     6.780000000     1.964000000     1.333000000
C     5.597000000     0.197000000     1.330000000
O     6.418000000    -0.309000000     0.438000000
C     6.659000000    -1.628000000     0.383000000
C     5.943000000    -2.334000000    -0.502000000
H     5.165000000    -1.854000000    -1.091000000
C     7.546000000    -2.194000000     1.278000000
H     8.133000000    -1.560000000     1.938000000
C     7.816000000    -3.543000000     1.158000000
H     8.382000000    -4.054000000     1.933000000
C     7.125000000    -4.323000000     0.246000000
H     7.344000000    -5.387000000     0.188000000
C     6.238000000    -3.679000000    -0.591000000
O     5.736000000    -4.422000000    -1.638000000
C     4.460000000    -4.203000000    -1.988000000
C     4.132000000    -3.679000000    -3.262000000
H     5.003000000    -3.508000000    -3.890000000
C     2.822000000    -3.372000000    -3.619000000
O     2.428000000    -2.943000000    -4.869000000
C     1.168000000    -2.896000000    -5.333000000
C     0.542000000    -1.662000000    -5.503000000
H     0.951000000    -0.714000000    -5.165000000
C     0.516000000    -4.096000000    -5.651000000
H     0.978000000    -5.071000000    -5.521000000
C    -0.796000000    -4.059000000    -6.169000000
H    -1.144000000    -5.014000000    -6.552000000
C    -1.333000000    -2.785000000    -6.469000000
H    -2.185000000    -2.656000000    -7.132000000
C    -0.740000000    -1.618000000    -6.088000000
O    -1.328000000    -0.408000000    -6.386000000
C    -2.101000000     0.221000000    -5.409000000
C    -2.705000000     1.425000000    -5.778000000
H    -2.440000000     1.850000000    -6.742000000
C    -3.646000000     2.039000000    -4.909000000
O    -4.089000000     3.313000000    -5.221000000
C    -4.412000000     4.135000000    -4.199000000
C    -3.295000000     4.758000000    -3.585000000
H    -2.281000000     4.399000000    -3.739000000
C    -5.672000000     4.590000000    -3.965000000
H    -6.484000000     4.281000000    -4.618000000
C    -5.939000000     5.551000000    -3.091000000
H    -6.992000000     5.625000000    -2.832000000
C    -4.914000000     6.148000000    -2.338000000
H    -5.123000000     6.903000000    -1.585000000
C    -3.590000000     5.754000000    -2.573000000
O    -2.526000000     6.350000000    -1.960000000
C    -1.837000000     5.625000000    -0.961000000
C    -0.451000000     5.712000000    -0.896000000
H    -0.011000000     6.381000000    -1.631000000
C     0.353000000     5.080000000     0.072000000
O     1.736000000     5.320000000     0.054000000
C     2.431000000     5.373000000     1.225000000
C     2.040000000     6.104000000     2.352000000
H     1.105000000     6.658000000     2.366000000
C     2.921000000     6.125000000     3.509000000
H     2.745000000     6.704000000     4.412000000
C     4.090000000     5.379000000     3.502000000
H     4.639000000     5.309000000     4.437000000
C     4.401000000     4.567000000     2.448000000
C     3.652000000     4.649000000     1.245000000
H     3.854000000     4.104000000     0.327000000
C     2.304000000    -0.050000000    -1.337000000
H     3.226000000    -0.483000000    -1.715000000
C     1.548000000    -0.711000000    -0.326000000
H     1.807000000    -1.696000000     0.055000000
C     0.389000000    -0.054000000     0.024000000
H    -0.303000000    -0.544000000     0.712000000
C    -0.120000000     1.108000000    -0.597000000
H    -1.096000000     1.483000000    -0.298000000
C     0.640000000     1.681000000    -1.582000000
H     0.181000000     2.518000000    -2.102000000
C     1.835000000     1.087000000    -1.966000000
C     2.593000000     1.594000000    -3.101000000
O     2.209000000     2.586000000    -3.602000000
O     3.714000000     1.205000000    -3.361000000
O     3.477000000     7.664000000    -3.474000000
H     3.322000000     6.732000000    -3.318000000
H     3.634000000     7.725000000    -4.417000000
O     0.648000000     2.501000000    -7.542000000
H     0.280000000     1.927000000    -8.214000000
H     0.879000000     3.302000000    -8.012000000
O     6.304000000     1.886000000    -8.309000000
H     5.748000000     1.130000000    -8.121000000
H     7.191000000     1.528000000    -8.342000000
O     2.070000000    -1.273000000    -8.783000000
H     1.955000000    -1.078000000    -9.713000000
H     1.326000000    -0.849000000    -8.356000000
O    -0.070000000     3.116000000    -4.667000000
H     0.791000000     2.786000000    -4.412000000
H    -0.252000000     2.690000000    -5.504000000
O     5.241000000    -0.394000000    -4.809000000
H     4.686000000    -0.569000000    -5.569000000
H     4.707000000     0.168000000    -4.247000000
O     6.138000000     1.268000000    -2.133000000
H     5.360000000     0.975000000    -2.606000000
H     6.242000000     0.632000000    -1.424000000
O     3.494000000     2.030000000    -6.218000000
H     3.430000000     2.346000000    -5.316000000
H     2.688000000     2.333000000    -6.635000000
O     3.229000000     1.838000000    -9.319000000
H     3.532000000     2.559000000    -8.766000000
H     3.943000000     1.696000000    -9.940000000
O     4.191000000    -0.257000000    -7.483000000
H     4.014000000     0.599000000    -7.093000000
H     3.480000000    -0.386000000    -8.112000000
O     5.550000000     3.528000000    -3.882000000
H     4.866000000     4.177000000    -3.717000000
H     5.205000000     2.716000000    -3.511000000
O     2.965000000     5.006000000    -2.838000000
H     2.563000000     5.167000000    -1.984000000
H     2.659000000     4.134000000    -3.086000000
O     7.240000000     1.719000000    -5.428000000
H     6.782000000     2.271000000    -4.795000000
H     6.559000000     1.151000000    -5.789000000
O     1.695000000     5.533000000    -5.898000000
H     2.393000000     5.142000000    -6.424000000
H     1.236000000     4.786000000    -5.515000000
O     8.251000000    -0.244000000    -3.346000000
H     7.402000000    -0.261000000    -3.788000000
H     8.056000000     0.075000000    -2.465000000
O     8.459000000     2.714000000    -1.997000000
H     8.727000000     2.216000000    -1.225000000
H     7.644000000     2.298000000    -2.279000000
O    -1.173000000     5.400000000    -6.883000000
H    -0.445000000     5.971000000    -6.639000000
H    -0.986000000     4.572000000    -6.441000000
O     5.215000000     4.624000000    -7.834000000
H     5.655000000     3.784000000    -7.709000000
H     5.835000000     5.272000000    -7.499000000
O     5.769000000     5.306000000    -1.438000000
H     6.264000000     5.331000000    -2.257000000
H     6.437000000     5.215000000    -0.758000000
