215
-1449.63443
C     0.286000000    -5.073000000    -0.837000000
H    -0.779000000    -5.098000000    -0.622000000
C     1.172000000    -4.574000000     0.106000000
C     2.518000000    -4.468000000    -0.140000000
H     3.216000000    -4.047000000     0.580000000
C     0.668000000    -3.970000000     1.451000000
O    -0.424000000    -4.759000000     1.981000000
H     0.258000000    -2.994000000     1.150000000
O     1.780000000    -3.899000000     2.420000000
C     1.899000000    -2.735000000     3.105000000
C     2.908000000    -1.808000000     2.747000000
H     3.600000000    -2.161000000     1.986000000
C     3.054000000    -0.527000000     3.371000000
O     4.031000000     0.306000000     2.949000000
C     2.135000000    -0.172000000     4.315000000
C     2.237000000     1.255000000     4.923000000
H     1.900000000     1.252000000     5.962000000
C     1.422000000     2.263000000     4.098000000
C     0.055000000     2.521000000     4.299000000
H    -0.533000000     1.962000000     5.022000000
H     3.294000000     1.526000000     4.964000000
C     1.045000000    -1.003000000     4.616000000
H     0.444000000    -0.649000000     5.450000000
C     0.970000000    -2.323000000     4.066000000
C    -0.142000000    -3.288000000     4.511000000
H    -0.442000000    -2.948000000     5.505000000
H     0.163000000    -4.332000000     4.614000000
C    -1.367000000    -3.165000000     3.485000000
C    -2.309000000    -2.196000000     3.794000000
H    -2.050000000    -1.549000000     4.628000000
C    -1.493000000    -4.008000000     2.396000000
C    -2.557000000    -3.885000000     1.467000000
H    -2.638000000    -4.435000000     0.533000000
C    -3.480000000    -2.826000000     1.734000000
O    -4.428000000    -2.549000000     0.709000000
C    -4.279000000    -1.285000000     0.041000000
C    -4.307000000    -1.466000000    -1.467000000
C    -4.295000000    -0.366000000    -2.296000000
H    -4.346000000     0.617000000    -1.835000000
C    -4.219000000    -2.790000000    -2.055000000
H    -4.044000000    -3.676000000    -1.450000000
O    -5.087000000    -0.238000000     0.605000000
H    -3.208000000    -1.048000000     0.117000000
C    -3.396000000    -2.021000000     2.983000000
C    -4.457000000    -0.900000000     3.322000000
H    -4.381000000    -0.674000000     4.388000000
H    -5.484000000    -1.196000000     3.098000000
C    -4.090000000     0.428000000     2.645000000
C    -3.418000000     1.331000000     3.439000000
H    -3.154000000     1.160000000     4.480000000
C    -4.421000000     0.724000000     1.348000000
C    -4.027000000     1.963000000     0.749000000
H    -4.293000000     2.199000000    -0.278000000
C    -3.223000000     2.817000000     1.521000000
O    -2.632000000     3.910000000     0.910000000
C    -1.328000000     3.953000000     0.510000000
C    -1.049000000     4.488000000    -0.869000000
C    -2.136000000     4.745000000    -1.752000000
H    -3.162000000     4.650000000    -1.407000000
C     0.261000000     4.674000000    -1.363000000
H     1.159000000     4.479000000    -0.783000000
O    -0.603000000     4.741000000     1.490000000
H    -1.068000000     2.885000000     0.529000000
C    -2.915000000     2.494000000     2.831000000
C    -2.158000000     3.505000000     3.781000000
H    -2.394000000     3.317000000     4.831000000
H    -2.480000000     4.512000000     3.507000000
C    -0.647000000     3.384000000     3.485000000
C     0.020000000     3.960000000     2.437000000
C     1.397000000     3.816000000     2.261000000
H     1.946000000     4.326000000     1.474000000
C     2.068000000     2.959000000     3.112000000
O     3.294000000     2.609000000     2.703000000
C     3.518000000     1.343000000     2.002000000
H     2.497000000     1.131000000     1.650000000
C     4.520000000     1.505000000     0.880000000
C     5.071000000     0.361000000     0.338000000
H     4.776000000    -0.490000000     0.946000000
C     5.023000000     2.711000000     0.415000000
H     4.613000000     3.633000000     0.819000000
C     5.817000000     2.867000000    -0.716000000
O     5.973000000     4.057000000    -1.358000000
C     6.207000000     1.655000000    -1.387000000
H     6.669000000     1.713000000    -2.369000000
C     5.915000000     0.453000000    -0.847000000
O     6.420000000    -0.616000000    -1.517000000
C     6.323000000    -1.838000000    -0.936000000
C     5.444000000    -2.786000000    -1.509000000
H     5.147000000    -2.643000000    -2.545000000
C     6.786000000    -2.037000000     0.350000000
H     7.323000000    -1.237000000     0.853000000
C     6.609000000    -3.303000000     0.991000000
H     7.063000000    -3.392000000     1.975000000
C     5.825000000    -4.220000000     0.357000000
H     5.544000000    -5.101000000     0.928000000
C     5.282000000    -4.006000000    -0.932000000
O     4.384000000    -4.864000000    -1.620000000
C     3.073000000    -5.035000000    -1.287000000
C     2.243000000    -5.728000000    -2.203000000
H     2.702000000    -6.323000000    -2.989000000
C     0.840000000    -5.687000000    -2.017000000
O     0.040000000    -6.450000000    -2.834000000
C    -1.324000000    -6.374000000    -2.838000000
C    -1.965000000    -5.292000000    -3.449000000
H    -1.371000000    -4.452000000    -3.800000000
C    -2.127000000    -7.389000000    -2.313000000
H    -1.683000000    -8.285000000    -1.888000000
C    -3.504000000    -7.242000000    -2.178000000
H    -4.062000000    -8.045000000    -1.703000000
C    -4.113000000    -6.153000000    -2.756000000
H    -5.193000000    -6.029000000    -2.744000000
C    -3.349000000    -5.207000000    -3.479000000
O    -3.928000000    -4.103000000    -4.075000000
C    -4.067000000    -2.920000000    -3.409000000
C    -3.985000000    -1.781000000    -4.205000000
H    -3.812000000    -1.912000000    -5.270000000
C    -4.179000000    -0.501000000    -3.704000000
O    -4.051000000     0.558000000    -4.643000000
C    -4.406000000     1.879000000    -4.425000000
C    -3.437000000     2.877000000    -4.283000000
H    -2.373000000     2.660000000    -4.331000000
C    -5.783000000     2.184000000    -4.336000000
H    -6.611000000     1.481000000    -4.298000000
C    -6.218000000     3.528000000    -4.305000000
H    -7.269000000     3.797000000    -4.243000000
C    -5.241000000     4.558000000    -4.266000000
H    -5.591000000     5.583000000    -4.179000000
C    -3.874000000     4.247000000    -4.204000000
O    -3.029000000     5.267000000    -3.931000000
C    -1.938000000     5.108000000    -3.055000000
C    -0.668000000     5.264000000    -3.500000000
H    -0.447000000     5.617000000    -4.504000000
C     0.434000000     5.056000000    -2.675000000
O     1.760000000     5.106000000    -3.243000000
C     2.872000000     5.472000000    -2.514000000
C     2.949000000     6.802000000    -2.088000000
H     2.128000000     7.473000000    -2.327000000
C     4.091000000     7.133000000    -1.359000000
H     4.173000000     8.081000000    -0.834000000
C     5.112000000     6.220000000    -1.186000000
H     6.071000000     6.540000000    -0.789000000
C     4.986000000     4.902000000    -1.604000000
C     3.836000000     4.489000000    -2.283000000
H     3.738000000     3.437000000    -2.537000000
C     1.986000000     0.149000000    -2.213000000
H     3.050000000     0.198000000    -2.431000000
C     1.592000000    -0.011000000    -0.878000000
H     2.340000000     0.027000000    -0.090000000
C     0.259000000     0.034000000    -0.455000000
H     0.011000000     0.052000000     0.703000000
C    -0.763000000     0.124000000    -1.414000000
H    -1.793000000     0.081000000    -1.069000000
C    -0.375000000     0.147000000    -2.791000000
H    -1.133000000     0.193000000    -3.569000000
C     0.993000000     0.181000000    -3.145000000
C     1.375000000     0.476000000    -4.557000000
O     0.486000000     0.391000000    -5.406000000
O     2.581000000     0.478000000    -4.870000000
O    -2.213000000    -2.511000000    -8.083000000
H    -2.133000000    -1.930000000    -8.840000000
H    -1.458000000    -2.294000000    -7.535000000
O    -0.311000000    -1.956000000    -5.932000000
H    -0.050000000    -1.046000000    -5.792000000
H     0.299000000    -2.465000000    -5.398000000
O     3.160000000    -1.610000000    -6.445000000
H     3.020000000    -0.801000000    -5.952000000
H     2.807000000    -1.423000000    -7.315000000
O     3.616000000     2.974000000    -6.163000000
H     4.549000000     2.783000000    -6.261000000
H     3.228000000     2.140000000    -5.897000000
O     2.864000000     6.147000000    -6.371000000
H     2.825000000     5.283000000    -5.961000000
H     3.657000000     6.546000000    -6.014000000
O    -1.488000000    -4.796000000    -6.509000000
H    -2.445000000    -4.804000000    -6.475000000
H    -1.262000000    -3.880000000    -6.668000000
O     3.113000000    -4.261000000    -5.438000000
H     4.016000000    -4.555000000    -5.560000000
H     3.126000000    -3.338000000    -5.690000000
O     4.784000000    -0.494000000    -4.266000000
H     4.008000000     0.064000000    -4.211000000
H     4.679000000    -0.970000000    -5.089000000
O    -3.281000000     0.542000000    -7.326000000
H    -2.530000000     0.096000000    -7.718000000
H    -3.331000000     0.190000000    -6.437000000
O     6.474000000     1.654000000    -6.013000000
H     6.948000000     1.417000000    -5.216000000
H     6.517000000     0.869000000    -6.560000000
O     5.876000000    -1.436000000    -7.439000000
H     4.953000000    -1.214000000    -7.320000000
H     5.929000000    -1.772000000    -8.334000000
O    -0.714000000     2.390000000    -6.697000000
H    -0.362000000     1.841000000    -5.997000000
H     0.059000000     2.755000000    -7.127000000
O    -0.224000000    -0.139000000    -8.326000000
H     0.433000000    -0.726000000    -8.701000000
H     0.132000000     0.104000000    -7.471000000
O    -3.313000000     3.312000000    -7.477000000
H    -2.410000000     3.085000000    -7.254000000
H    -3.766000000     2.470000000    -7.526000000
O     1.566000000     3.720000000    -8.090000000
H     1.633000000     3.152000000    -8.857000000
H     2.461000000     3.772000000    -7.753000000
O     2.117000000    -1.785000000    -9.492000000
H     1.362000000    -2.068000000   -10.007000000
H     2.639000000    -2.579000000    -9.375000000
O     7.617000000    -0.159000000    -4.092000000
H     6.671000000    -0.298000000    -4.035000000
H     7.914000000    -0.159000000    -3.182000000
O     3.084000000     0.649000000    -8.722000000
H     2.637000000    -0.074000000    -9.161000000
H     2.483000000     1.389000000    -8.806000000
O     1.239000000    -3.006000000    -3.851000000
H     1.581000000    -2.362000000    -3.230000000
H     2.000000000    -3.536000000    -4.088000000
