215
-1450.45687
C    -1.442000000    -5.180000000     0.696000000
H    -2.465000000    -4.813000000     0.709000000
C    -0.533000000    -4.704000000     1.583000000
C     0.774000000    -5.133000000     1.373000000
H     1.566000000    -4.676000000     1.961000000
C    -0.935000000    -3.527000000     2.435000000
O    -2.240000000    -3.545000000     3.001000000
H    -0.836000000    -2.631000000     1.806000000
O     0.029000000    -3.505000000     3.494000000
C     0.599000000    -2.339000000     3.832000000
C     1.850000000    -2.011000000     3.384000000
H     2.480000000    -2.708000000     2.837000000
C     2.446000000    -0.831000000     3.757000000
O     3.646000000    -0.538000000     3.160000000
C     1.737000000     0.154000000     4.415000000
C     2.248000000     1.520000000     4.735000000
H     1.692000000     1.817000000     5.626000000
C     1.986000000     2.534000000     3.712000000
C     0.869000000     3.380000000     3.740000000
H     0.180000000     3.446000000     4.578000000
H     3.313000000     1.633000000     4.950000000
C     0.380000000    -0.099000000     4.712000000
H    -0.167000000     0.692000000     5.218000000
C    -0.156000000    -1.386000000     4.544000000
C    -1.615000000    -1.731000000     4.951000000
H    -1.813000000    -1.209000000     5.890000000
H    -1.621000000    -2.775000000     5.269000000
C    -2.584000000    -1.423000000     3.961000000
C    -3.211000000    -0.190000000     3.908000000
H    -3.014000000     0.584000000     4.645000000
C    -2.870000000    -2.346000000     2.983000000
C    -3.794000000    -2.002000000     1.944000000
H    -4.121000000    -2.764000000     1.240000000
C    -4.204000000    -0.638000000     1.783000000
O    -4.950000000    -0.246000000     0.674000000
C    -4.226000000     0.410000000    -0.294000000
C    -4.434000000    -0.098000000    -1.730000000
C    -4.482000000     0.763000000    -2.810000000
H    -4.509000000     1.825000000    -2.579000000
C    -4.560000000    -1.440000000    -1.910000000
H    -4.519000000    -2.098000000    -1.045000000
O    -4.622000000     1.787000000    -0.201000000
H    -3.146000000     0.385000000    -0.084000000
C    -3.931000000     0.256000000     2.774000000
C    -4.598000000     1.651000000     2.730000000
H    -4.714000000     1.908000000     3.785000000
H    -5.617000000     1.580000000     2.343000000
C    -3.782000000     2.635000000     1.873000000
C    -2.784000000     3.394000000     2.501000000
H    -2.741000000     3.342000000     3.586000000
C    -3.815000000     2.670000000     0.495000000
C    -2.953000000     3.492000000    -0.221000000
H    -2.899000000     3.476000000    -1.307000000
C    -1.899000000     4.205000000     0.410000000
O    -0.985000000     4.800000000    -0.443000000
C     0.287000000     4.209000000    -0.530000000
C     0.849000000     4.184000000    -1.920000000
C    -0.010000000     3.842000000    -2.972000000
H    -1.057000000     3.607000000    -2.801000000
C     2.194000000     4.526000000    -2.263000000
H     2.825000000     4.820000000    -1.428000000
O     1.159000000     4.874000000     0.429000000
H     0.267000000     3.119000000    -0.385000000
C    -1.788000000     4.087000000     1.820000000
C    -0.802000000     4.897000000     2.603000000
H    -1.294000000     5.028000000     3.569000000
H    -0.607000000     5.875000000     2.156000000
C     0.547000000     4.165000000     2.676000000
C     1.399000000     4.222000000     1.631000000
C     2.529000000     3.449000000     1.578000000
H     3.153000000     3.358000000     0.693000000
C     2.746000000     2.538000000     2.569000000
O     3.844000000     1.686000000     2.415000000
C     3.591000000     0.336000000     1.912000000
H     2.570000000     0.370000000     1.503000000
C     4.571000000    -0.159000000     0.809000000
C     4.829000000    -1.503000000     0.679000000
H     4.521000000    -2.167000000     1.484000000
C     4.917000000     0.662000000    -0.248000000
H     4.503000000     1.667000000    -0.250000000
C     5.682000000     0.213000000    -1.346000000
O     6.036000000     1.072000000    -2.397000000
C     6.045000000    -1.141000000    -1.426000000
H     6.639000000    -1.504000000    -2.261000000
C     5.609000000    -2.036000000    -0.405000000
O     5.921000000    -3.394000000    -0.557000000
C     5.312000000    -4.354000000     0.235000000
C     4.211000000    -4.994000000    -0.273000000
H     3.825000000    -4.751000000    -1.259000000
C     5.703000000    -4.603000000     1.568000000
H     6.502000000    -3.994000000     1.984000000
C     4.986000000    -5.450000000     2.378000000
H     5.324000000    -5.526000000     3.409000000
C     3.882000000    -6.058000000     1.940000000
H     3.409000000    -6.755000000     2.626000000
C     3.527000000    -5.884000000     0.563000000
O     2.329000000    -6.486000000     0.056000000
C     1.086000000    -6.094000000     0.346000000
C     0.100000000    -6.659000000    -0.417000000
H     0.132000000    -7.530000000    -1.067000000
C    -1.185000000    -6.164000000    -0.276000000
O    -2.195000000    -6.597000000    -1.056000000
C    -3.371000000    -5.993000000    -1.260000000
C    -3.434000000    -4.979000000    -2.234000000
H    -2.547000000    -4.639000000    -2.762000000
C    -4.364000000    -6.313000000    -0.356000000
H    -4.363000000    -7.030000000     0.460000000
C    -5.592000000    -5.709000000    -0.638000000
H    -6.430000000    -6.050000000    -0.036000000
C    -5.799000000    -4.686000000    -1.629000000
H    -6.817000000    -4.387000000    -1.863000000
C    -4.669000000    -4.287000000    -2.349000000
O    -4.822000000    -3.260000000    -3.342000000
C    -4.649000000    -1.929000000    -3.198000000
C    -4.769000000    -1.140000000    -4.295000000
H    -5.012000000    -1.575000000    -5.261000000
C    -4.534000000     0.229000000    -4.136000000
O    -4.626000000     0.967000000    -5.245000000
C    -3.914000000     2.145000000    -5.273000000
C    -2.529000000     2.252000000    -5.429000000
H    -1.960000000     1.332000000    -5.536000000
C    -4.683000000     3.291000000    -5.119000000
H    -5.750000000     3.153000000    -4.964000000
C    -4.072000000     4.538000000    -5.148000000
H    -4.753000000     5.358000000    -4.935000000
C    -2.676000000     4.639000000    -5.242000000
H    -2.191000000     5.608000000    -5.163000000
C    -1.887000000     3.482000000    -5.363000000
O    -0.440000000     3.533000000    -5.387000000
C     0.410000000     3.814000000    -4.332000000
C     1.702000000     4.216000000    -4.610000000
H     2.080000000     4.157000000    -5.627000000
C     2.601000000     4.574000000    -3.611000000
O     3.940000000     4.928000000    -3.834000000
C     4.996000000     4.406000000    -3.143000000
C     6.160000000     5.125000000    -2.904000000
H     6.182000000     6.188000000    -3.132000000
C     7.289000000     4.523000000    -2.393000000
H     8.182000000     5.125000000    -2.239000000
C     7.230000000     3.150000000    -2.089000000
H     8.096000000     2.623000000    -1.698000000
C     6.037000000     2.430000000    -2.302000000
C     4.966000000     3.036000000    -2.835000000
H     4.111000000     2.398000000    -3.042000000
C     1.497000000    -1.594000000    -1.161000000
H     2.321000000    -2.302000000    -1.118000000
C     1.024000000    -1.049000000     0.007000000
H     1.442000000    -1.328000000     0.971000000
C    -0.076000000    -0.205000000    -0.026000000
H    -0.381000000     0.234000000     0.910000000
C    -0.657000000     0.141000000    -1.182000000
H    -1.489000000     0.835000000    -1.260000000
C    -0.211000000    -0.395000000    -2.345000000
H    -0.752000000    -0.081000000    -3.234000000
C     0.809000000    -1.291000000    -2.383000000
C     1.276000000    -1.852000000    -3.718000000
O     0.778000000    -1.462000000    -4.734000000
O     2.153000000    -2.674000000    -3.704000000
O     2.817000000    -4.033000000    -5.851000000
H     2.402000000    -3.555000000    -6.570000000
H     2.862000000    -3.399000000    -5.136000000
O    -2.381000000    -4.134000000    -5.970000000
H    -1.569000000    -4.552000000    -5.683000000
H    -2.197000000    -3.196000000    -5.922000000
O     2.772000000     2.628000000    -8.013000000
H     3.033000000     3.475000000    -8.375000000
H     3.489000000     2.387000000    -7.427000000
O     0.965000000     0.924000000    -8.726000000
H     1.368000000     0.092000000    -8.478000000
H     1.550000000     1.590000000    -8.366000000
O    -0.822000000    -7.314000000    -6.787000000
H    -0.127000000    -6.754000000    -6.439000000
H    -1.114000000    -7.829000000    -6.035000000
O     4.088000000     0.072000000    -4.505000000
H     3.838000000    -0.269000000    -3.646000000
H     3.281000000     0.445000000    -4.859000000
O     6.583000000    -4.231000000    -6.882000000
H     7.423000000    -4.150000000    -6.430000000
H     6.084000000    -3.464000000    -6.600000000
O    -1.465000000    -1.238000000    -6.408000000
H    -0.967000000    -1.095000000    -7.213000000
H    -0.841000000    -1.056000000    -5.705000000
O    -0.606000000    -3.536000000    -8.348000000
H    -0.903000000    -3.536000000    -9.258000000
H    -1.370000000    -3.823000000    -7.847000000
O     4.788000000    -5.954000000    -5.511000000
H     4.054000000    -5.348000000    -5.612000000
H     5.517000000    -5.523000000    -5.956000000
O     0.182000000    -4.805000000    -5.475000000
H     0.037000000    -4.461000000    -4.594000000
H     1.119000000    -4.680000000    -5.629000000
O    -1.248000000    -0.389000000    -9.748000000
H    -0.395000000    -0.105000000    -9.419000000
H    -1.411000000     0.171000000   -10.507000000
O     5.826000000    -1.878000000    -5.783000000
H     6.617000000    -1.430000000    -6.082000000
H     5.300000000    -1.190000000    -5.375000000
O     4.760000000     2.054000000    -6.522000000
H     5.521000000     2.589000000    -6.297000000
H     4.574000000     1.555000000    -5.726000000
O     5.803000000    -6.370000000    -2.696000000
H     5.550000000    -6.760000000    -3.533000000
H     5.582000000    -5.443000000    -2.787000000
O     1.868000000     1.241000000    -5.516000000
H     1.077000000     0.714000000    -5.414000000
H     1.546000000     2.133000000    -5.649000000
O     4.870000000    -3.282000000    -3.627000000
H     5.345000000    -2.967000000    -4.396000000
H     4.003000000    -2.884000000    -3.701000000
O     3.647000000    -0.900000000    -8.065000000
H     2.778000000    -1.301000000    -8.065000000
H     3.748000000    -0.546000000    -7.181000000
O     1.146000000    -1.543000000    -7.151000000
H     0.640000000    -2.289000000    -7.475000000
H     1.063000000    -1.593000000    -6.199000000
