215
-1466.03584
C    -1.045000000    -4.713000000     0.805000000
H    -2.080000000    -4.394000000     0.894000000
C    -0.102000000    -4.364000000     1.799000000
C     1.148000000    -4.931000000     1.808000000
H     1.906000000    -4.653000000     2.536000000
C    -0.555000000    -3.252000000     2.756000000
O    -1.954000000    -3.363000000     3.109000000
H    -0.350000000    -2.350000000     2.161000000
O     0.287000000    -3.209000000     3.891000000
C     0.779000000    -1.947000000     4.205000000
C     2.014000000    -1.556000000     3.654000000
H     2.610000000    -2.276000000     3.099000000
C     2.419000000    -0.263000000     3.826000000
O     3.644000000     0.034000000     3.261000000
C     1.626000000     0.701000000     4.483000000
C     2.160000000     2.147000000     4.612000000
H     1.702000000     2.594000000     5.497000000
C     1.980000000     2.930000000     3.367000000
C     0.830000000     3.739000000     3.301000000
H     0.151000000     3.703000000     4.149000000
H     3.244000000     2.154000000     4.742000000
C     0.452000000     0.300000000     5.040000000
H    -0.196000000     1.042000000     5.499000000
C    -0.082000000    -1.018000000     4.811000000
C    -1.469000000    -1.423000000     5.304000000
H    -1.830000000    -0.789000000     6.117000000
H    -1.431000000    -2.484000000     5.557000000
C    -2.439000000    -1.246000000     4.163000000
C    -3.088000000     0.006000000     4.041000000
H    -2.991000000     0.739000000     4.838000000
C    -2.666000000    -2.134000000     3.109000000
C    -3.523000000    -1.904000000     2.079000000
H    -3.688000000    -2.703000000     1.360000000
C    -4.129000000    -0.628000000     2.000000000
O    -5.056000000    -0.449000000     0.970000000
C    -4.539000000     0.388000000    -0.100000000
C    -4.846000000    -0.173000000    -1.518000000
C    -4.666000000     0.526000000    -2.678000000
H    -4.445000000     1.582000000    -2.546000000
C    -5.005000000    -1.501000000    -1.647000000
H    -5.090000000    -2.228000000    -0.843000000
O    -4.982000000     1.761000000    -0.005000000
H    -3.439000000     0.363000000    -0.083000000
C    -3.915000000     0.378000000     2.993000000
C    -4.490000000     1.760000000     2.842000000
H    -4.460000000     2.252000000     3.816000000
H    -5.559000000     1.661000000     2.645000000
C    -3.690000000     2.662000000     1.878000000
C    -2.635000000     3.413000000     2.333000000
H    -2.482000000     3.396000000     3.409000000
C    -4.107000000     2.684000000     0.522000000
C    -3.368000000     3.397000000    -0.379000000
H    -3.603000000     3.352000000    -1.439000000
C    -2.255000000     4.162000000     0.085000000
O    -1.451000000     4.729000000    -0.865000000
C    -0.128000000     4.131000000    -0.958000000
C     0.288000000     4.056000000    -2.407000000
C    -0.620000000     3.722000000    -3.443000000
H    -1.644000000     3.515000000    -3.143000000
C     1.658000000     3.991000000    -2.750000000
H     2.353000000     3.948000000    -1.915000000
O     0.874000000     4.872000000    -0.237000000
H    -0.170000000     3.100000000    -0.576000000
C    -1.946000000     4.117000000     1.428000000
C    -0.944000000     5.061000000     2.024000000
H    -1.215000000     5.339000000     3.044000000
H    -0.992000000     6.016000000     1.496000000
C     0.403000000     4.346000000     2.092000000
C     1.279000000     4.376000000     1.026000000
C     2.444000000     3.606000000     1.099000000
H     3.163000000     3.541000000     0.286000000
C     2.796000000     2.896000000     2.232000000
O     3.817000000     1.998000000     2.091000000
C     3.587000000     0.579000000     1.943000000
H     2.603000000     0.398000000     1.485000000
C     4.631000000    -0.086000000     0.956000000
C     5.055000000    -1.383000000     1.112000000
H     4.619000000    -2.041000000     1.859000000
C     4.931000000     0.665000000    -0.230000000
H     4.510000000     1.654000000    -0.393000000
C     5.920000000     0.099000000    -1.125000000
O     6.334000000     0.748000000    -2.280000000
C     6.401000000    -1.196000000    -0.871000000
H     6.949000000    -1.656000000    -1.689000000
C     5.974000000    -1.936000000     0.194000000
O     6.469000000    -3.251000000     0.246000000
C     5.737000000    -4.224000000     1.002000000
C     4.579000000    -4.845000000     0.414000000
H     4.208000000    -4.384000000    -0.498000000
C     6.334000000    -4.787000000     2.155000000
H     7.358000000    -4.498000000     2.377000000
C     5.775000000    -5.901000000     2.772000000
H     6.300000000    -6.391000000     3.588000000
C     4.532000000    -6.353000000     2.304000000
H     4.033000000    -7.219000000     2.732000000
C     3.906000000    -5.812000000     1.122000000
O     2.736000000    -6.323000000     0.603000000
C     1.515000000    -5.751000000     0.714000000
C     0.617000000    -6.047000000    -0.270000000
H     1.012000000    -6.661000000    -1.075000000
C    -0.646000000    -5.528000000    -0.253000000
O    -1.348000000    -5.502000000    -1.417000000
C    -2.672000000    -5.445000000    -1.445000000
C    -3.366000000    -4.454000000    -2.184000000
H    -2.826000000    -3.716000000    -2.771000000
C    -3.421000000    -6.494000000    -0.918000000
H    -2.884000000    -7.345000000    -0.509000000
C    -4.811000000    -6.478000000    -0.982000000
H    -5.388000000    -7.263000000    -0.500000000
C    -5.520000000    -5.416000000    -1.603000000
H    -6.606000000    -5.418000000    -1.562000000
C    -4.743000000    -4.452000000    -2.319000000
O    -5.455000000    -3.479000000    -2.988000000
C    -5.104000000    -2.150000000    -2.913000000
C    -4.938000000    -1.387000000    -4.089000000
H    -4.884000000    -1.924000000    -5.033000000
C    -4.719000000    -0.060000000    -3.987000000
O    -4.611000000     0.655000000    -5.171000000
C    -4.151000000     1.884000000    -5.161000000
C    -2.903000000     2.058000000    -5.641000000
H    -2.275000000     1.199000000    -5.867000000
C    -5.020000000     2.983000000    -4.936000000
H    -6.072000000     2.818000000    -4.717000000
C    -4.482000000     4.277000000    -5.166000000
H    -5.090000000     5.172000000    -5.064000000
C    -3.127000000     4.413000000    -5.501000000
H    -2.781000000     5.440000000    -5.593000000
C    -2.328000000     3.304000000    -5.620000000
O    -1.020000000     3.396000000    -5.827000000
C    -0.206000000     3.765000000    -4.790000000
C     1.164000000     3.825000000    -5.128000000
H     1.490000000     3.769000000    -6.164000000
C     2.086000000     3.931000000    -4.084000000
O     3.402000000     3.703000000    -4.428000000
C     4.543000000     3.592000000    -3.600000000
C     5.369000000     4.662000000    -3.223000000
H     5.123000000     5.668000000    -3.553000000
C     6.435000000     4.363000000    -2.356000000
H     7.128000000     5.166000000    -2.120000000
C     6.808000000     3.058000000    -2.012000000
H     7.740000000     2.794000000    -1.518000000
C     5.956000000     2.060000000    -2.454000000
C     4.842000000     2.318000000    -3.200000000
H     4.060000000     1.607000000    -3.450000000
C    -0.042000000    -2.268000000    -2.338000000
H     0.426000000    -3.194000000    -2.661000000
C     0.100000000    -1.792000000    -1.031000000
H     0.591000000    -2.355000000    -0.241000000
C    -0.422000000    -0.551000000    -0.674000000
H    -0.313000000    -0.040000000     0.219000000
C    -1.144000000     0.217000000    -1.634000000
H    -1.661000000     1.134000000    -1.363000000
C    -1.230000000    -0.270000000    -2.953000000
H    -1.764000000     0.271000000    -3.730000000
C    -0.616000000    -1.536000000    -3.318000000
C    -0.793000000    -2.092000000    -4.693000000
O    -1.078000000    -1.249000000    -5.536000000
O    -0.705000000    -3.279000000    -4.941000000
O    -3.691000000    -8.105000000    -3.687000000
H    -4.131000000    -7.559000000    -3.036000000
H    -3.079000000    -7.512000000    -4.123000000
O    -5.750000000    -5.446000000    -5.011000000
H    -5.592000000    -4.505000000    -4.938000000
H    -5.262000000    -5.712000000    -5.791000000
O    -3.022000000    -4.479000000    -6.029000000
H    -2.725000000    -4.333000000    -6.927000000
H    -2.322000000    -4.120000000    -5.484000000
O     3.015000000     1.689000000    -8.856000000
H     2.383000000     1.385000000    -8.205000000
H     3.167000000     0.929000000    -9.417000000
O    -1.560000000     1.603000000    -8.729000000
H    -1.027000000     0.844000000    -8.966000000
H    -0.928000000     2.257000000    -8.433000000
O     1.996000000     0.598000000    -3.374000000
H     1.310000000     0.209000000    -2.831000000
H     1.546000000     0.857000000    -4.178000000
O     4.214000000     0.853000000    -5.927000000
H     3.311000000     0.926000000    -6.235000000
H     4.671000000     1.579000000    -6.352000000
O    -0.364000000    -0.934000000    -9.812000000
H     0.396000000    -1.281000000   -10.280000000
H    -0.516000000    -1.560000000    -9.104000000
O    -1.590000000    -2.389000000    -7.933000000
H    -1.587000000    -1.996000000    -7.060000000
H    -1.490000000    -3.328000000    -7.774000000
O     1.098000000    -3.891000000    -6.862000000
H     0.376000000    -3.608000000    -6.302000000
H     0.696000000    -4.499000000    -7.483000000
O     0.241000000    -8.284000000    -4.863000000
H     0.161000000    -7.369000000    -4.593000000
H     0.394000000    -8.762000000    -4.047000000
O    -1.339000000    -5.191000000    -8.455000000
H    -1.326000000    -5.100000000    -9.408000000
H    -0.964000000    -6.056000000    -8.292000000
O     4.335000000    -1.225000000    -4.167000000
H     4.211000000    -0.429000000    -4.683000000
H     4.097000000    -0.971000000    -3.275000000
O    -1.921000000    -7.105000000    -6.333000000
H    -2.289000000    -6.234000000    -6.482000000
H    -1.180000000    -6.955000000    -5.746000000
O     2.649000000    -5.377000000    -3.418000000
H     1.860000000    -5.446000000    -3.957000000
H     3.031000000    -4.534000000    -3.662000000
O     0.922000000     0.136000000    -6.496000000
H     0.015000000    -0.025000000    -6.233000000
H     1.151000000    -0.617000000    -7.039000000
O    -5.338000000    -3.921000000    -8.031000000
H    -4.999000000    -4.701000000    -8.471000000
H    -4.578000000    -3.345000000    -7.945000000
O     0.242000000    -5.703000000    -3.903000000
H    -0.191000000    -5.502000000    -3.074000000
H     0.131000000    -4.911000000    -4.429000000
O     3.306000000    -2.486000000    -7.161000000
H     2.607000000    -3.140000000    -7.157000000
H     3.456000000    -2.290000000    -6.236000000
