215
-1475.04558
C    -1.794000000    -5.359000000     1.209000000
H    -2.787000000    -5.006000000     1.477000000
C    -0.677000000    -4.712000000     1.624000000
C     0.582000000    -4.916000000     1.133000000
H     1.423000000    -4.285000000     1.409000000
C    -0.791000000    -3.461000000     2.429000000
O    -2.085000000    -3.420000000     3.035000000
H    -0.677000000    -2.622000000     1.727000000
O     0.211000000    -3.595000000     3.518000000
C     0.754000000    -2.355000000     3.836000000
C     1.985000000    -2.008000000     3.313000000
H     2.505000000    -2.665000000     2.620000000
C     2.560000000    -0.751000000     3.512000000
O     3.814000000    -0.390000000     2.960000000
C     1.882000000     0.248000000     4.270000000
C     2.554000000     1.578000000     4.540000000
H     2.234000000     1.861000000     5.544000000
C     2.318000000     2.657000000     3.456000000
C     1.159000000     3.490000000     3.464000000
H     0.471000000     3.545000000     4.304000000
H     3.598000000     1.395000000     4.805000000
C     0.601000000    -0.053000000     4.766000000
H     0.028000000     0.737000000     5.245000000
C     0.042000000    -1.321000000     4.516000000
C    -1.345000000    -1.571000000     5.109000000
H    -1.470000000    -0.955000000     6.002000000
H    -1.370000000    -2.636000000     5.346000000
C    -2.364000000    -1.222000000     4.016000000
C    -3.001000000     0.012000000     4.014000000
H    -2.858000000     0.667000000     4.869000000
C    -2.725000000    -2.234000000     3.124000000
C    -3.501000000    -1.874000000     2.010000000
H    -3.662000000    -2.580000000     1.199000000
C    -4.027000000    -0.551000000     1.982000000
O    -4.718000000    -0.242000000     0.884000000
C    -3.986000000     0.389000000    -0.144000000
C    -4.205000000    -0.181000000    -1.503000000
C    -4.078000000     0.633000000    -2.656000000
H    -4.072000000     1.700000000    -2.446000000
C    -4.458000000    -1.511000000    -1.715000000
H    -4.359000000    -2.129000000    -0.826000000
O    -4.417000000     1.716000000    -0.058000000
H    -2.918000000     0.259000000     0.086000000
C    -3.748000000     0.380000000     2.941000000
C    -4.318000000     1.809000000     2.889000000
H    -4.433000000     2.285000000     3.865000000
H    -5.360000000     1.816000000     2.564000000
C    -3.529000000     2.734000000     1.968000000
C    -2.477000000     3.434000000     2.528000000
H    -2.268000000     3.363000000     3.592000000
C    -3.604000000     2.585000000     0.569000000
C    -2.806000000     3.372000000    -0.266000000
H    -2.881000000     3.360000000    -1.350000000
C    -1.834000000     4.195000000     0.349000000
O    -0.978000000     4.846000000    -0.500000000
C     0.393000000     4.421000000    -0.714000000
C     0.805000000     4.432000000    -2.162000000
C    -0.102000000     4.093000000    -3.162000000
H    -1.094000000     3.841000000    -2.796000000
C     2.139000000     4.746000000    -2.539000000
H     2.867000000     4.983000000    -1.768000000
O     1.379000000     5.023000000     0.130000000
H     0.388000000     3.344000000    -0.489000000
C    -1.569000000     4.148000000     1.732000000
C    -0.503000000     4.948000000     2.383000000
H    -0.812000000     5.129000000     3.415000000
H    -0.486000000     5.887000000     1.825000000
C     0.787000000     4.241000000     2.350000000
C     1.661000000     4.275000000     1.246000000
C     2.878000000     3.616000000     1.280000000
H     3.582000000     3.594000000     0.452000000
C     3.152000000     2.718000000     2.282000000
O     4.144000000     1.843000000     2.027000000
C     3.882000000     0.429000000     1.782000000
H     2.880000000     0.464000000     1.330000000
C     4.738000000    -0.191000000     0.681000000
C     5.041000000    -1.556000000     0.762000000
H     4.812000000    -2.039000000     1.709000000
C     5.001000000     0.492000000    -0.501000000
H     4.624000000     1.506000000    -0.609000000
C     5.551000000    -0.090000000    -1.605000000
O     5.805000000     0.694000000    -2.701000000
C     5.855000000    -1.455000000    -1.514000000
H     6.260000000    -1.870000000    -2.434000000
C     5.579000000    -2.233000000    -0.361000000
O     5.858000000    -3.572000000    -0.493000000
C     5.060000000    -4.486000000     0.128000000
C     3.895000000    -5.022000000    -0.433000000
H     3.447000000    -4.560000000    -1.309000000
C     5.573000000    -5.029000000     1.340000000
H     6.567000000    -4.682000000     1.613000000
C     4.812000000    -6.007000000     2.033000000
H     5.272000000    -6.309000000     2.971000000
C     3.540000000    -6.340000000     1.581000000
H     2.873000000    -6.912000000     2.220000000
C     3.106000000    -5.883000000     0.332000000
O     1.906000000    -6.481000000    -0.168000000
C     0.723000000    -6.033000000     0.329000000
C    -0.404000000    -6.742000000    -0.142000000
H    -0.255000000    -7.607000000    -0.783000000
C    -1.689000000    -6.355000000     0.264000000
O    -2.732000000    -6.914000000    -0.400000000
C    -3.779000000    -6.040000000    -0.666000000
C    -3.764000000    -5.152000000    -1.734000000
H    -2.868000000    -5.042000000    -2.341000000
C    -4.993000000    -6.181000000     0.062000000
H    -5.137000000    -6.901000000     0.862000000
C    -6.117000000    -5.380000000    -0.291000000
H    -7.030000000    -5.435000000     0.297000000
C    -6.001000000    -4.444000000    -1.306000000
H    -6.879000000    -3.860000000    -1.570000000
C    -4.884000000    -4.385000000    -2.093000000
O    -4.812000000    -3.438000000    -3.152000000
C    -4.593000000    -2.054000000    -2.990000000
C    -4.471000000    -1.257000000    -4.109000000
H    -4.675000000    -1.676000000    -5.091000000
C    -4.248000000     0.145000000    -3.945000000
O    -4.346000000     0.947000000    -5.023000000
C    -3.812000000     2.195000000    -5.117000000
C    -2.419000000     2.425000000    -5.106000000
H    -1.734000000     1.584000000    -5.032000000
C    -4.766000000     3.227000000    -5.121000000
H    -5.815000000     2.942000000    -5.131000000
C    -4.302000000     4.538000000    -5.149000000
H    -4.953000000     5.386000000    -4.958000000
C    -2.948000000     4.726000000    -5.357000000
H    -2.556000000     5.739000000    -5.353000000
C    -2.012000000     3.717000000    -5.377000000
O    -0.698000000     4.015000000    -5.545000000
C     0.240000000     4.108000000    -4.546000000
C     1.540000000     4.403000000    -4.899000000
H     1.925000000     4.462000000    -5.914000000
C     2.511000000     4.620000000    -3.903000000
O     3.924000000     4.838000000    -4.165000000
C     4.893000000     4.241000000    -3.398000000
C     5.721000000     4.935000000    -2.533000000
H     5.586000000     6.006000000    -2.402000000
C     6.658000000     4.172000000    -1.759000000
H     7.320000000     4.532000000    -0.976000000
C     6.618000000     2.780000000    -1.778000000
H     7.386000000     2.251000000    -1.220000000
C     5.809000000     2.123000000    -2.713000000
C     4.956000000     2.871000000    -3.553000000
H     4.264000000     2.331000000    -4.195000000
C     1.237000000    -1.812000000    -1.300000000
H     1.853000000    -2.707000000    -1.278000000
C     0.665000000    -1.360000000    -0.104000000
H     1.027000000    -1.829000000     0.807000000
C    -0.133000000    -0.197000000    -0.080000000
H    -0.492000000     0.277000000     0.853000000
C    -0.346000000     0.468000000    -1.269000000
H    -0.985000000     1.345000000    -1.328000000
C     0.084000000    -0.020000000    -2.490000000
H    -0.199000000     0.530000000    -3.384000000
C     0.898000000    -1.184000000    -2.536000000
C     1.459000000    -1.682000000    -3.856000000
O     1.119000000    -1.112000000    -4.875000000
O     2.261000000    -2.614000000    -3.887000000
O    -3.351000000     0.318000000    -7.847000000
H    -2.652000000    -0.005000000    -7.279000000
H    -4.014000000     0.654000000    -7.243000000
O     1.694000000    -4.515000000    -6.114000000
H     1.459000000    -3.786000000    -6.687000000
H     2.156000000    -4.106000000    -5.382000000
O    -3.129000000    -4.839000000    -6.956000000
H    -2.429000000    -4.499000000    -6.398000000
H    -3.529000000    -4.060000000    -7.341000000
O    -0.988000000    -3.850000000    -5.255000000
H    -0.077000000    -4.076000000    -5.443000000
H    -1.119000000    -4.124000000    -4.347000000
O     0.295000000     1.320000000    -8.301000000
H    -0.163000000     0.497000000    -8.132000000
H     0.885000000     1.120000000    -9.028000000
O    -0.740000000    -6.512000000    -3.950000000
H     0.023000000    -6.005000000    -3.672000000
H    -0.428000000    -7.416000000    -3.986000000
O     4.194000000    -0.717000000    -5.010000000
H     3.502000000    -1.378000000    -5.029000000
H     4.004000000    -0.194000000    -4.231000000
O    -0.962000000    -1.251000000    -8.987000000
H    -0.873000000    -1.281000000    -9.940000000
H    -1.888000000    -1.056000000    -8.840000000
O     4.895000000    -5.432000000    -6.954000000
H     4.812000000    -4.588000000    -7.398000000
H     4.972000000    -6.070000000    -7.663000000
O    -1.379000000    -0.903000000    -5.830000000
H    -1.754000000    -1.783000000    -5.845000000
H    -0.626000000    -0.973000000    -5.244000000
O     3.115000000    -6.931000000    -5.733000000
H     2.562000000    -6.150000000    -5.751000000
H     3.916000000    -6.667000000    -6.187000000
O     1.467000000    -5.057000000    -2.950000000
H     1.601000000    -4.961000000    -2.007000000
H     1.855000000    -4.267000000    -3.328000000
O     6.324000000    -2.823000000    -5.150000000
H     6.803000000    -2.242000000    -4.558000000
H     5.603000000    -2.287000000    -5.479000000
O     4.636000000     2.248000000    -7.484000000
H     5.481000000     2.224000000    -7.036000000
H     3.993000000     2.101000000    -6.790000000
O     3.480000000    -7.158000000    -2.948000000
H     3.510000000    -6.890000000    -3.866000000
H     2.884000000    -6.532000000    -2.536000000
O     2.305000000     1.337000000    -6.163000000
H     1.886000000     0.706000000    -5.577000000
H     1.606000000     1.616000000    -6.754000000
O     4.037000000    -4.479000000    -3.883000000
H     4.775000000    -4.206000000    -4.429000000
H     3.519000000    -3.683000000    -3.766000000
O     3.668000000    -1.423000000    -7.709000000
H     2.745000000    -1.558000000    -7.494000000
H     4.011000000    -0.906000000    -6.980000000
O     1.270000000    -2.017000000    -7.351000000
H     0.436000000    -1.916000000    -7.809000000
H     1.161000000    -1.520000000    -6.540000000
