215
-1420.29195
C    -1.509000000    -5.377000000     0.710000000
H    -2.534000000    -5.025000000     0.796000000
C    -0.521000000    -4.670000000     1.333000000
C     0.737000000    -4.832000000     0.936000000
H     1.452000000    -4.169000000     1.417000000
C    -0.839000000    -3.482000000     2.327000000
O    -2.214000000    -3.563000000     2.754000000
H    -0.629000000    -2.536000000     1.807000000
O    -0.009000000    -3.454000000     3.507000000
C     0.414000000    -2.211000000     3.914000000
C     1.755000000    -1.899000000     3.656000000
H     2.379000000    -2.615000000     3.126000000
C     2.180000000    -0.674000000     4.094000000
O     3.428000000    -0.317000000     3.722000000
C     1.329000000     0.286000000     4.676000000
C     1.929000000     1.679000000     5.098000000
H     1.381000000     2.084000000     5.950000000
C     1.824000000     2.555000000     3.895000000
C     0.652000000     3.281000000     3.739000000
H    -0.073000000     3.162000000     4.541000000
H     2.966000000     1.584000000     5.428000000
C     0.035000000    -0.103000000     5.074000000
H    -0.648000000     0.526000000     5.639000000
C    -0.403000000    -1.355000000     4.678000000
C    -1.840000000    -1.556000000     4.921000000
H    -2.214000000    -1.024000000     5.798000000
H    -1.931000000    -2.632000000     5.084000000
C    -2.645000000    -1.297000000     3.751000000
C    -3.292000000    -0.043000000     3.629000000
H    -3.143000000     0.678000000     4.429000000
C    -2.838000000    -2.282000000     2.746000000
C    -3.673000000    -1.985000000     1.699000000
H    -3.878000000    -2.759000000     0.963000000
C    -4.303000000    -0.690000000     1.599000000
O    -4.881000000    -0.528000000     0.360000000
C    -4.165000000     0.313000000    -0.581000000
C    -4.047000000    -0.229000000    -2.013000000
C    -3.709000000     0.606000000    -3.061000000
H    -3.490000000     1.652000000    -2.861000000
C    -4.212000000    -1.616000000    -2.289000000
H    -4.371000000    -2.333000000    -1.488000000
O    -4.540000000     1.733000000    -0.459000000
H    -3.098000000     0.265000000    -0.317000000
C    -4.065000000     0.297000000     2.516000000
C    -4.785000000     1.648000000     2.352000000
H    -4.998000000     1.949000000     3.379000000
H    -5.740000000     1.679000000     1.824000000
C    -3.805000000     2.621000000     1.711000000
C    -2.861000000     3.341000000     2.437000000
H    -2.939000000     3.382000000     3.520000000
C    -3.788000000     2.619000000     0.348000000
C    -3.026000000     3.601000000    -0.257000000
H    -2.871000000     3.551000000    -1.332000000
C    -1.996000000     4.271000000     0.403000000
O    -1.032000000     4.921000000    -0.334000000
C     0.200000000     4.262000000    -0.569000000
C     0.686000000     4.267000000    -2.030000000
C    -0.108000000     4.673000000    -3.042000000
H    -1.050000000     5.110000000    -2.722000000
C     1.928000000     3.748000000    -2.305000000
H     2.539000000     3.379000000    -1.486000000
O     1.133000000     4.839000000     0.409000000
H     0.205000000     3.203000000    -0.273000000
C    -1.984000000     4.189000000     1.859000000
C    -0.941000000     4.867000000     2.639000000
H    -1.392000000     5.083000000     3.609000000
H    -0.828000000     5.853000000     2.184000000
C     0.384000000     4.094000000     2.649000000
C     1.308000000     4.088000000     1.598000000
C     2.515000000     3.425000000     1.749000000
H     3.111000000     3.316000000     0.847000000
C     2.736000000     2.639000000     2.849000000
O     3.849000000     1.843000000     2.891000000
C     3.693000000     0.476000000     2.531000000
H     2.866000000     0.375000000     1.812000000
C     4.844000000     0.004000000     1.605000000
C     5.270000000    -1.327000000     1.625000000
H     4.771000000    -1.993000000     2.324000000
C     5.349000000     0.808000000     0.562000000
H     4.987000000     1.831000000     0.495000000
C     6.368000000     0.301000000    -0.270000000
O     6.875000000     1.095000000    -1.202000000
C     6.647000000    -1.052000000    -0.254000000
H     7.275000000    -1.555000000    -0.984000000
C     6.046000000    -1.858000000     0.642000000
O     6.332000000    -3.142000000     0.497000000
C     5.510000000    -4.137000000     0.828000000
C     4.435000000    -4.489000000    -0.041000000
H     4.460000000    -3.797000000    -0.878000000
C     5.650000000    -4.735000000     2.079000000
H     6.456000000    -4.446000000     2.749000000
C     4.821000000    -5.826000000     2.401000000
H     5.003000000    -6.346000000     3.338000000
C     3.733000000    -6.126000000     1.508000000
H     2.959000000    -6.821000000     1.825000000
C     3.573000000    -5.479000000     0.308000000
O     2.462000000    -5.762000000    -0.491000000
C     1.156000000    -5.767000000    -0.035000000
C     0.162000000    -6.312000000    -0.771000000
H     0.397000000    -7.014000000    -1.567000000
C    -1.142000000    -6.186000000    -0.358000000
O    -2.094000000    -6.753000000    -1.275000000
C    -3.282000000    -6.112000000    -1.658000000
C    -3.187000000    -5.074000000    -2.572000000
H    -2.203000000    -4.750000000    -2.902000000
C    -4.549000000    -6.485000000    -1.151000000
H    -4.479000000    -7.335000000    -0.477000000
C    -5.686000000    -5.773000000    -1.544000000
H    -6.666000000    -5.918000000    -1.097000000
C    -5.559000000    -4.814000000    -2.560000000
H    -6.469000000    -4.363000000    -2.948000000
C    -4.340000000    -4.471000000    -3.059000000
O    -4.289000000    -3.458000000    -3.929000000
C    -4.217000000    -2.098000000    -3.639000000
C    -3.918000000    -1.216000000    -4.683000000
H    -3.859000000    -1.539000000    -5.719000000
C    -3.668000000     0.124000000    -4.371000000
O    -3.344000000     0.899000000    -5.376000000
C    -3.246000000     2.259000000    -5.333000000
C    -2.033000000     3.005000000    -5.383000000
H    -1.140000000     2.393000000    -5.478000000
C    -4.459000000     2.986000000    -5.255000000
H    -5.346000000     2.371000000    -5.128000000
C    -4.400000000     4.373000000    -5.359000000
H    -5.334000000     4.928000000    -5.378000000
C    -3.145000000     5.086000000    -5.242000000
H    -3.153000000     6.171000000    -5.317000000
C    -1.952000000     4.354000000    -5.355000000
O    -0.713000000     5.011000000    -5.315000000
C     0.281000000     4.629000000    -4.382000000
C     1.467000000     4.018000000    -4.720000000
H     1.696000000     3.689000000    -5.731000000
C     2.266000000     3.522000000    -3.691000000
O     3.518000000     2.962000000    -3.993000000
C     4.590000000     3.089000000    -3.229000000
C     5.039000000     4.402000000    -2.875000000
H     4.487000000     5.218000000    -3.333000000
C     6.182000000     4.558000000    -2.023000000
H     6.569000000     5.543000000    -1.777000000
C     6.766000000     3.440000000    -1.440000000
H     7.669000000     3.535000000    -0.842000000
C     6.212000000     2.174000000    -1.721000000
C     5.132000000     1.927000000    -2.508000000
H     4.762000000     0.918000000    -2.672000000
C     1.910000000    -1.509000000    -1.158000000
H     2.599000000    -2.320000000    -0.936000000
C     1.161000000    -0.994000000    -0.143000000
H     1.561000000    -1.240000000     0.837000000
C     0.098000000    -0.088000000    -0.357000000
H    -0.345000000     0.320000000     0.562000000
C    -0.198000000     0.339000000    -1.654000000
H    -0.950000000     1.121000000    -1.711000000
C     0.535000000    -0.203000000    -2.699000000
H     0.455000000     0.294000000    -3.662000000
C     1.555000000    -1.148000000    -2.415000000
C     2.325000000    -1.631000000    -3.644000000
O     1.766000000    -1.708000000    -4.722000000
O     3.373000000    -2.205000000    -3.421000000
O     3.087000000     2.011000000    -7.595000000
H     2.667000000     2.672000000    -8.146000000
H     2.376000000     1.418000000    -7.350000000
O     0.363000000    -4.648000000    -8.382000000
H     1.131000000    -4.426000000    -7.855000000
H     0.289000000    -5.599000000    -8.310000000
O     2.227000000    -3.929000000    -6.307000000
H     1.992000000    -3.123000000    -5.848000000
H     3.184000000    -3.941000000    -6.297000000
O    -2.067000000    -4.532000000    -7.071000000
H    -1.441000000    -4.229000000    -7.729000000
H    -1.980000000    -3.905000000    -6.352000000
O     4.993000000    -2.493000000    -5.935000000
H     4.362000000    -2.276000000    -5.248000000
H     5.594000000    -1.749000000    -5.952000000
O     6.978000000    -4.858000000    -3.530000000
H     6.636000000    -4.001000000    -3.278000000
H     6.726000000    -5.438000000    -2.811000000
O    -0.668000000    -6.778000000    -5.754000000
H    -1.095000000    -6.104000000    -6.283000000
H     0.267000000    -6.651000000    -5.912000000
O     5.837000000     0.941000000    -7.441000000
H     5.973000000     0.474000000    -8.265000000
H     4.954000000     1.303000000    -7.514000000
O     7.948000000    -5.097000000    -6.145000000
H     7.405000000    -5.085000000    -5.356000000
H     8.498000000    -4.317000000    -6.068000000
O    -1.094000000    -2.744000000    -5.055000000
H    -1.553000000    -1.918000000    -4.899000000
H    -0.238000000    -2.623000000    -4.645000000
O     5.299000000    -4.021000000    -8.330000000
H     4.795000000    -3.371000000    -8.819000000
H     5.568000000    -3.565000000    -7.532000000
O     3.407000000    -7.671000000    -4.096000000
H     3.729000000    -6.789000000    -3.913000000
H     3.700000000    -8.193000000    -3.349000000
O     1.993000000    -6.550000000    -6.241000000
H     2.419000000    -6.854000000    -5.440000000
H     1.998000000    -5.596000000    -6.168000000
O     1.496000000    -0.108000000    -6.921000000
H     0.541000000    -0.158000000    -6.970000000
H     1.718000000    -0.554000000    -6.104000000
O     3.226000000    -5.013000000    -3.334000000
H     2.824000000    -4.925000000    -2.470000000
H     3.506000000    -4.125000000    -3.560000000
O     6.686000000    -0.299000000    -5.369000000
H     6.273000000     0.233000000    -6.049000000
H     7.610000000    -0.053000000    -5.400000000
O    -1.217000000     0.034000000    -7.400000000
H    -2.111000000     0.097000000    -7.066000000
H    -1.317000000    -0.303000000    -8.291000000
O     6.119000000    -2.269000000    -3.102000000
H     6.484000000    -1.973000000    -3.936000000
H     5.171000000    -2.199000000    -3.218000000
O     2.467000000    -0.494000000    -9.421000000
H     1.711000000     0.041000000    -9.661000000
H     2.427000000    -0.552000000    -8.467000000
