215
-1435.55514
C    -1.635000000    -4.613000000    -0.328000000
H    -2.706000000    -4.452000000    -0.229000000
C    -0.669000000    -4.191000000     0.607000000
C     0.629000000    -4.575000000     0.270000000
H     1.397000000    -4.141000000     0.905000000
C    -1.205000000    -3.411000000     1.823000000
O    -2.662000000    -3.365000000     1.933000000
H    -0.965000000    -2.357000000     1.621000000
O    -0.533000000    -3.835000000     3.006000000
C     0.048000000    -2.804000000     3.752000000
C     1.441000000    -2.590000000     3.631000000
H     2.113000000    -3.351000000     3.243000000
C     2.039000000    -1.419000000     4.088000000
O     3.308000000    -1.125000000     3.636000000
C     1.226000000    -0.469000000     4.733000000
C     1.862000000     0.761000000     5.343000000
H     1.223000000     1.008000000     6.193000000
C     1.893000000     1.837000000     4.243000000
C     0.718000000     2.587000000     4.164000000
H    -0.158000000     2.362000000     4.767000000
H     2.883000000     0.530000000     5.657000000
C    -0.202000000    -0.642000000     4.815000000
H    -0.809000000     0.139000000     5.267000000
C    -0.762000000    -1.809000000     4.317000000
C    -2.280000000    -2.006000000     4.489000000
H    -2.560000000    -1.638000000     5.478000000
H    -2.536000000    -3.065000000     4.562000000
C    -3.118000000    -1.410000000     3.405000000
C    -3.727000000    -0.174000000     3.576000000
H    -3.465000000     0.224000000     4.553000000
C    -3.323000000    -2.146000000     2.280000000
C    -4.022000000    -1.612000000     1.231000000
H    -4.288000000    -2.175000000     0.340000000
C    -4.524000000    -0.361000000     1.322000000
O    -5.133000000     0.124000000     0.185000000
C    -4.226000000     0.898000000    -0.641000000
C    -4.284000000     0.498000000    -2.117000000
C    -3.775000000     1.410000000    -3.110000000
H    -3.270000000     2.278000000    -2.694000000
C    -4.694000000    -0.759000000    -2.495000000
H    -5.009000000    -1.465000000    -1.732000000
O    -4.514000000     2.306000000    -0.428000000
H    -3.212000000     0.653000000    -0.289000000
C    -4.295000000     0.437000000     2.442000000
C    -4.821000000     1.870000000     2.456000000
H    -5.033000000     2.197000000     3.476000000
H    -5.798000000     1.810000000     1.973000000
C    -3.838000000     2.863000000     1.881000000
C    -2.826000000     3.401000000     2.706000000
H    -2.732000000     3.163000000     3.762000000
C    -3.732000000     2.992000000     0.441000000
C    -2.693000000     3.822000000    -0.064000000
H    -2.551000000     3.938000000    -1.136000000
C    -1.685000000     4.307000000     0.780000000
O    -0.629000000     4.871000000     0.168000000
C     0.571000000     4.064000000    -0.010000000
C     1.071000000     4.083000000    -1.433000000
C     0.322000000     4.666000000    -2.419000000
H    -0.642000000     5.128000000    -2.223000000
C     2.287000000     3.447000000    -1.706000000
H     2.831000000     2.913000000    -0.931000000
O     1.573000000     4.517000000     1.032000000
H     0.286000000     3.045000000     0.290000000
C    -1.751000000     4.041000000     2.147000000
C    -0.663000000     4.495000000     3.107000000
H    -1.063000000     4.612000000     4.116000000
H    -0.367000000     5.529000000     2.916000000
C     0.611000000     3.554000000     3.156000000
C     1.637000000     3.763000000     2.171000000
C     2.739000000     2.989000000     2.249000000
H     3.488000000     3.149000000     1.478000000
C     2.797000000     1.968000000     3.198000000
O     3.824000000     1.092000000     3.009000000
C     3.437000000    -0.269000000     2.487000000
H     2.507000000    -0.278000000     1.899000000
C     4.500000000    -0.727000000     1.547000000
C     4.918000000    -2.056000000     1.599000000
H     4.448000000    -2.747000000     2.293000000
C     5.218000000     0.225000000     0.787000000
H     4.863000000     1.248000000     0.685000000
C     6.349000000    -0.163000000     0.025000000
O     7.200000000     0.582000000    -0.692000000
C     6.702000000    -1.562000000     0.068000000
H     7.594000000    -1.878000000    -0.467000000
C     5.989000000    -2.466000000     0.788000000
O     6.325000000    -3.773000000     0.739000000
C     5.312000000    -4.721000000     0.709000000
C     4.323000000    -4.786000000    -0.286000000
H     4.350000000    -4.066000000    -1.100000000
C     5.227000000    -5.599000000     1.825000000
H     6.054000000    -5.617000000     2.531000000
C     4.196000000    -6.517000000     1.967000000
H     4.101000000    -7.147000000     2.848000000
C     3.226000000    -6.600000000     0.958000000
H     2.387000000    -7.290000000     0.919000000
C     3.310000000    -5.734000000    -0.098000000
O     2.264000000    -5.864000000    -1.068000000
C     0.943000000    -5.437000000    -0.836000000
C    -0.051000000    -5.831000000    -1.715000000
H     0.228000000    -6.533000000    -2.496000000
C    -1.397000000    -5.427000000    -1.383000000
O    -2.409000000    -5.953000000    -2.151000000
C    -3.673000000    -5.291000000    -2.398000000
C    -3.789000000    -4.041000000    -3.043000000
H    -2.894000000    -3.554000000    -3.423000000
C    -4.802000000    -5.991000000    -2.218000000
H    -4.751000000    -6.862000000    -1.570000000
C    -6.029000000    -5.423000000    -2.548000000
H    -6.892000000    -6.029000000    -2.284000000
C    -6.082000000    -4.197000000    -3.084000000
H    -7.068000000    -3.896000000    -3.430000000
C    -5.003000000    -3.461000000    -3.389000000
O    -5.065000000    -2.445000000    -4.249000000
C    -4.638000000    -1.127000000    -3.856000000
C    -4.168000000    -0.222000000    -4.820000000
H    -4.044000000    -0.614000000    -5.826000000
C    -3.690000000     1.046000000    -4.387000000
O    -3.031000000     1.827000000    -5.327000000
C    -2.768000000     3.118000000    -5.117000000
C    -1.449000000     3.533000000    -4.861000000
H    -0.655000000     2.796000000    -4.773000000
C    -3.740000000     4.131000000    -5.326000000
H    -4.712000000     3.806000000    -5.687000000
C    -3.496000000     5.499000000    -5.254000000
H    -4.292000000     6.187000000    -5.528000000
C    -2.177000000     5.941000000    -4.981000000
H    -1.987000000     7.005000000    -5.103000000
C    -1.151000000     4.939000000    -4.825000000
O     0.152000000     5.364000000    -4.662000000
C     0.929000000     4.716000000    -3.691000000
C     2.070000000     4.093000000    -4.057000000
H     2.396000000     4.089000000    -5.093000000
C     2.825000000     3.485000000    -3.038000000
O     3.991000000     2.687000000    -3.306000000
C     5.022000000     2.886000000    -2.469000000
C     5.482000000     4.147000000    -2.023000000
H     5.056000000     5.057000000    -2.437000000
C     6.668000000     4.146000000    -1.253000000
H     7.059000000     5.126000000    -0.995000000
C     7.239000000     2.980000000    -0.848000000
H     7.952000000     3.024000000    -0.029000000
C     6.713000000     1.762000000    -1.140000000
C     5.660000000     1.686000000    -2.069000000
H     5.349000000     0.694000000    -2.385000000
C     1.100000000    -1.537000000    -1.307000000
H     1.658000000    -2.467000000    -1.379000000
C     0.776000000    -1.038000000    -0.027000000
H     1.204000000    -1.611000000     0.792000000
C    -0.043000000     0.065000000     0.148000000
H    -0.405000000     0.346000000     1.094000000
C    -0.434000000     0.740000000    -0.996000000
H    -1.115000000     1.587000000    -0.962000000
C    -0.067000000     0.281000000    -2.314000000
H    -0.506000000     0.846000000    -3.133000000
C     0.724000000    -0.843000000    -2.465000000
C     1.176000000    -1.303000000    -3.838000000
O     0.848000000    -0.662000000    -4.755000000
O     2.146000000    -2.062000000    -4.031000000
O     1.647000000    -4.191000000    -8.847000000
H     2.349000000    -4.228000000    -9.497000000
H     0.877000000    -3.913000000    -9.343000000
O     1.680000000     3.038000000    -7.491000000
H     2.546000000     2.846000000    -7.132000000
H     1.142000000     2.289000000    -7.236000000
O     2.406000000    -2.273000000    -7.108000000
H     2.373000000    -2.254000000    -6.152000000
H     1.973000000    -3.092000000    -7.347000000
O    -2.757000000    -4.241000000    -6.249000000
H    -2.049000000    -3.635000000    -6.029000000
H    -2.992000000    -4.018000000    -7.150000000
O     5.684000000    -5.607000000    -5.958000000
H     6.314000000    -4.894000000    -6.068000000
H     4.913000000    -5.189000000    -5.575000000
O     6.395000000    -3.737000000    -2.890000000
H     6.078000000    -2.886000000    -2.589000000
H     7.344000000    -3.696000000    -2.768000000
O    -0.022000000    -6.138000000    -8.110000000
H     0.674000000    -5.548000000    -8.400000000
H    -0.110000000    -5.963000000    -7.173000000
O    -1.905000000    -6.699000000    -5.326000000
H    -2.153000000    -5.963000000    -5.885000000
H    -1.019000000    -6.488000000    -5.030000000
O     6.942000000    -0.784000000    -5.044000000
H     6.335000000    -0.821000000    -5.784000000
H     7.014000000     0.148000000    -4.840000000
O     4.136000000     0.901000000    -7.970000000
H     3.993000000     0.882000000    -7.023000000
H     3.965000000     0.004000000    -8.256000000
O    -0.727000000    -2.453000000    -6.273000000
H    -1.140000000    -2.123000000    -7.071000000
H    -0.058000000    -1.802000000    -6.062000000
O     0.942000000    -0.834000000    -8.820000000
H     0.535000000    -0.155000000    -8.282000000
H     1.585000000    -1.244000000    -8.241000000
O     2.792000000    -7.200000000    -4.329000000
H     3.022000000    -7.536000000    -3.463000000
H     2.583000000    -6.278000000    -4.181000000
O     0.581000000    -5.287000000    -5.412000000
H     1.181000000    -5.162000000    -4.677000000
H     0.369000000    -4.399000000    -5.701000000
O     3.617000000     0.245000000    -5.368000000
H     3.916000000     0.824000000    -4.668000000
H     2.815000000    -0.150000000    -5.026000000
O     2.777000000    -4.550000000    -3.532000000
H     2.661000000    -4.481000000    -2.584000000
H     2.582000000    -3.673000000    -3.862000000
O    -0.096000000     0.798000000    -6.794000000
H     0.356000000     0.325000000    -6.096000000
H    -0.974000000     0.956000000    -6.447000000
O     4.698000000    -1.516000000    -2.855000000
H     5.393000000    -1.393000000    -3.500000000
H     3.913000000    -1.682000000    -3.377000000
O     4.606000000    -1.609000000    -9.047000000
H     4.745000000    -1.848000000    -9.964000000
H     4.157000000    -2.364000000    -8.668000000
