215
-1452.81305
C    -1.449000000    -5.175000000     0.490000000
H    -2.482000000    -4.894000000     0.676000000
C    -0.514000000    -4.521000000     1.288000000
C     0.832000000    -4.887000000     1.167000000
H     1.449000000    -4.181000000     1.719000000
C    -0.970000000    -3.356000000     2.195000000
O    -2.310000000    -3.559000000     2.744000000
H    -0.963000000    -2.429000000     1.603000000
O    -0.024000000    -3.455000000     3.301000000
C     0.420000000    -2.344000000     3.948000000
C     1.701000000    -2.005000000     3.668000000
H     2.288000000    -2.712000000     3.087000000
C     2.103000000    -0.698000000     4.027000000
O     3.321000000    -0.341000000     3.500000000
C     1.214000000     0.178000000     4.611000000
C     1.599000000     1.616000000     4.987000000
H     1.091000000     1.970000000     5.886000000
C     1.405000000     2.658000000     3.867000000
C     0.270000000     3.421000000     3.749000000
H    -0.382000000     3.565000000     4.607000000
H     2.639000000     1.557000000     5.314000000
C    -0.028000000    -0.267000000     4.989000000
H    -0.649000000     0.548000000     5.352000000
C    -0.478000000    -1.522000000     4.673000000
C    -1.949000000    -1.861000000     4.960000000
H    -2.267000000    -1.296000000     5.839000000
H    -2.114000000    -2.923000000     5.150000000
C    -2.881000000    -1.516000000     3.849000000
C    -3.535000000    -0.254000000     3.679000000
H    -3.370000000     0.486000000     4.459000000
C    -3.099000000    -2.467000000     2.833000000
C    -3.898000000    -2.171000000     1.709000000
H    -4.034000000    -2.828000000     0.855000000
C    -4.477000000    -0.875000000     1.553000000
O    -5.034000000    -0.616000000     0.341000000
C    -4.197000000     0.227000000    -0.566000000
C    -4.292000000    -0.258000000    -2.041000000
C    -4.256000000     0.635000000    -3.136000000
H    -4.198000000     1.711000000    -2.999000000
C    -4.318000000    -1.665000000    -2.287000000
H    -4.419000000    -2.380000000    -1.474000000
O    -4.606000000     1.582000000    -0.532000000
H    -3.160000000     0.110000000    -0.221000000
C    -4.278000000     0.080000000     2.553000000
C    -4.826000000     1.502000000     2.390000000
H    -4.939000000     1.967000000     3.372000000
H    -5.821000000     1.548000000     1.942000000
C    -3.907000000     2.417000000     1.601000000
C    -3.086000000     3.362000000     2.230000000
H    -3.004000000     3.323000000     3.313000000
C    -3.931000000     2.511000000     0.201000000
C    -3.158000000     3.394000000    -0.512000000
H    -3.123000000     3.307000000    -1.595000000
C    -2.231000000     4.189000000     0.144000000
O    -1.261000000     4.838000000    -0.576000000
C     0.062000000     4.264000000    -0.614000000
C     0.705000000     4.190000000    -1.979000000
C    -0.060000000     3.824000000    -3.122000000
H    -1.127000000     3.647000000    -3.014000000
C     2.085000000     4.497000000    -2.086000000
H     2.716000000     5.045000000    -1.392000000
O     0.864000000     4.966000000     0.338000000
H     0.060000000     3.214000000    -0.286000000
C    -2.238000000     4.251000000     1.533000000
C    -1.246000000     5.010000000     2.357000000
H    -1.744000000     5.305000000     3.284000000
H    -1.016000000     5.862000000     1.715000000
C     0.053000000     4.207000000     2.571000000
C     1.006000000     4.325000000     1.586000000
C     2.113000000     3.532000000     1.668000000
H     2.795000000     3.474000000     0.824000000
C     2.288000000     2.633000000     2.729000000
O     3.440000000     1.900000000     2.738000000
C     3.356000000     0.501000000     2.382000000
H     2.434000000     0.215000000     1.854000000
C     4.508000000    -0.026000000     1.506000000
C     4.922000000    -1.333000000     1.588000000
H     4.380000000    -2.030000000     2.221000000
C     5.132000000     0.914000000     0.649000000
H     4.748000000     1.930000000     0.613000000
C     6.129000000     0.470000000    -0.155000000
O     6.820000000     1.382000000    -0.956000000
C     6.563000000    -0.841000000    -0.065000000
H     7.321000000    -1.229000000    -0.740000000
C     5.926000000    -1.732000000     0.757000000
O     6.319000000    -3.025000000     0.707000000
C     5.499000000    -4.073000000     1.115000000
C     4.381000000    -4.364000000     0.358000000
H     4.118000000    -3.824000000    -0.548000000
C     5.856000000    -4.781000000     2.272000000
H     6.668000000    -4.471000000     2.924000000
C     5.065000000    -5.800000000     2.743000000
H     5.323000000    -6.353000000     3.643000000
C     4.013000000    -6.232000000     1.885000000
H     3.482000000    -7.166000000     2.050000000
C     3.664000000    -5.545000000     0.752000000
O     2.605000000    -5.996000000    -0.029000000
C     1.265000000    -5.764000000     0.180000000
C     0.315000000    -6.420000000    -0.623000000
H     0.598000000    -7.058000000    -1.457000000
C    -1.050000000    -6.201000000    -0.370000000
O    -2.060000000    -6.779000000    -1.157000000
C    -3.208000000    -6.175000000    -1.571000000
C    -3.057000000    -5.058000000    -2.438000000
H    -2.071000000    -4.740000000    -2.770000000
C    -4.462000000    -6.680000000    -1.277000000
H    -4.473000000    -7.616000000    -0.724000000
C    -5.586000000    -6.009000000    -1.722000000
H    -6.556000000    -6.479000000    -1.583000000
C    -5.466000000    -4.962000000    -2.624000000
H    -6.342000000    -4.453000000    -3.020000000
C    -4.219000000    -4.531000000    -3.000000000
O    -4.105000000    -3.545000000    -3.914000000
C    -4.224000000    -2.182000000    -3.616000000
C    -4.325000000    -1.250000000    -4.676000000
H    -4.211000000    -1.629000000    -5.688000000
C    -4.307000000     0.163000000    -4.422000000
O    -4.226000000     0.962000000    -5.517000000
C    -3.594000000     2.157000000    -5.699000000
C    -2.211000000     2.189000000    -5.482000000
H    -1.632000000     1.320000000    -5.179000000
C    -4.293000000     3.316000000    -6.010000000
H    -5.366000000     3.284000000    -6.183000000
C    -3.557000000     4.529000000    -6.121000000
H    -4.017000000     5.451000000    -6.465000000
C    -2.162000000     4.517000000    -6.002000000
H    -1.490000000     5.300000000    -6.344000000
C    -1.446000000     3.354000000    -5.721000000
O    -0.070000000     3.285000000    -5.541000000
C     0.547000000     3.622000000    -4.369000000
C     1.922000000     3.800000000    -4.415000000
H     2.444000000     3.536000000    -5.331000000
C     2.665000000     4.293000000    -3.344000000
O     4.029000000     4.462000000    -3.514000000
C     5.048000000     4.253000000    -2.477000000
C     5.870000000     5.280000000    -2.121000000
H     5.638000000     6.299000000    -2.419000000
C     7.049000000     5.055000000    -1.438000000
H     7.780000000     5.849000000    -1.317000000
C     7.359000000     3.756000000    -1.062000000
H     8.371000000     3.525000000    -0.742000000
C     6.486000000     2.698000000    -1.230000000
C     5.321000000     3.022000000    -2.020000000
H     4.703000000     2.204000000    -2.382000000
C     1.309000000    -1.393000000    -1.071000000
H     2.006000000    -2.227000000    -1.066000000
C     0.670000000    -0.906000000     0.090000000
H     0.928000000    -1.246000000     1.090000000
C    -0.292000000     0.083000000     0.014000000
H    -0.708000000     0.513000000     0.880000000
C    -0.523000000     0.619000000    -1.217000000
H    -1.236000000     1.433000000    -1.321000000
C     0.192000000     0.224000000    -2.408000000
H    -0.064000000     0.709000000    -3.346000000
C     1.067000000    -0.804000000    -2.353000000
C     1.624000000    -1.333000000    -3.630000000
O     1.097000000    -1.033000000    -4.680000000
O     2.662000000    -2.020000000    -3.563000000
O     4.389000000    -0.331000000    -4.560000000
H     3.896000000     0.336000000    -5.037000000
H     3.719000000    -0.864000000    -4.133000000
O     0.517000000     2.047000000    -8.658000000
H     0.628000000     2.127000000    -9.606000000
H    -0.264000000     1.503000000    -8.554000000
O    -2.666000000    -6.005000000    -5.491000000
H    -2.139000000    -5.757000000    -4.731000000
H    -2.025000000    -6.258000000    -6.155000000
O     3.984000000    -2.076000000    -7.884000000
H     3.187000000    -1.601000000    -8.118000000
H     3.699000000    -2.713000000    -7.228000000
O     2.427000000    -3.315000000    -6.115000000
H     1.807000000    -2.652000000    -5.809000000
H     3.101000000    -3.343000000    -5.437000000
O     7.111000000    -5.169000000    -4.618000000
H     6.351000000    -4.602000000    -4.489000000
H     7.753000000    -4.858000000    -3.979000000
O     0.242000000    -6.028000000    -6.350000000
H     1.191000000    -6.004000000    -6.476000000
H    -0.120000000    -5.872000000    -7.223000000
O    -1.241000000    -1.234000000    -5.860000000
H    -1.590000000    -1.882000000    -5.248000000
H    -0.349000000    -1.071000000    -5.554000000
O     6.576000000     2.215000000    -4.761000000
H     6.100000000     1.673000000    -5.391000000
H     6.333000000     3.113000000    -4.986000000
O     1.395000000    -2.572000000   -10.490000000
H     1.705000000    -2.010000000    -9.779000000
H     0.748000000    -2.038000000   -10.952000000
O     2.867000000    -6.280000000    -6.949000000
H     3.783000000    -6.541000000    -6.859000000
H     2.892000000    -5.324000000    -6.981000000
O     2.110000000    -0.458000000    -8.972000000
H     2.409000000    -0.077000000    -9.798000000
H     1.843000000     0.295000000    -8.444000000
O     2.377000000     0.941000000    -6.196000000
H     1.650000000     1.548000000    -6.331000000
H     1.976000000     0.175000000    -5.786000000
O     0.920000000    -7.675000000    -4.136000000
H     0.488000000    -8.529000000    -4.159000000
H     0.582000000    -7.215000000    -4.905000000
O     7.517000000    -1.010000000    -4.042000000
H     6.726000000    -0.549000000    -3.764000000
H     8.215000000    -0.359000000    -3.963000000
O    -1.534000000     0.265000000    -7.962000000
H    -1.416000000    -0.196000000    -7.131000000
H    -2.478000000     0.414000000    -8.021000000
O     5.040000000    -3.252000000    -4.099000000
H     5.439000000    -2.455000000    -4.448000000
H     4.257000000    -2.946000000    -3.641000000
O     4.722000000     1.466000000    -8.036000000
H     4.630000000     0.996000000    -8.865000000
H     3.853000000     1.421000000    -7.637000000
O     6.730000000    -0.045000000    -6.897000000
H     6.024000000     0.445000000    -7.318000000
H     6.291000000    -0.566000000    -6.225000000
