215
-1453.11723
C    -1.649000000    -5.044000000     0.336000000
H    -2.646000000    -4.626000000     0.226000000
C    -0.755000000    -4.612000000     1.290000000
C     0.574000000    -5.112000000     1.310000000
H     1.318000000    -4.845000000     2.057000000
C    -1.124000000    -3.450000000     2.212000000
O    -2.536000000    -3.434000000     2.544000000
H    -0.806000000    -2.507000000     1.743000000
O    -0.376000000    -3.495000000     3.457000000
C     0.048000000    -2.301000000     3.930000000
C     1.405000000    -1.965000000     3.665000000
H     2.008000000    -2.708000000     3.151000000
C     1.884000000    -0.705000000     3.962000000
O     3.177000000    -0.538000000     3.526000000
C     1.105000000     0.200000000     4.630000000
C     1.728000000     1.531000000     5.059000000
H     1.126000000     1.881000000     5.900000000
C     1.730000000     2.630000000     3.920000000
C     0.556000000     3.382000000     3.773000000
H    -0.238000000     3.330000000     4.512000000
H     2.699000000     1.365000000     5.529000000
C    -0.192000000    -0.196000000     4.929000000
H    -0.823000000     0.538000000     5.424000000
C    -0.711000000    -1.433000000     4.638000000
C    -2.193000000    -1.717000000     4.801000000
H    -2.548000000    -1.173000000     5.679000000
H    -2.239000000    -2.757000000     5.132000000
C    -2.937000000    -1.265000000     3.628000000
C    -3.627000000    -0.033000000     3.564000000
H    -3.511000000     0.707000000     4.353000000
C    -3.178000000    -2.170000000     2.614000000
C    -3.910000000    -1.868000000     1.534000000
H    -4.111000000    -2.605000000     0.760000000
C    -4.522000000    -0.608000000     1.434000000
O    -5.165000000    -0.362000000     0.273000000
C    -4.403000000     0.437000000    -0.654000000
C    -4.491000000    -0.024000000    -2.129000000
C    -4.657000000     0.947000000    -3.157000000
H    -4.697000000     2.011000000    -2.938000000
C    -4.322000000    -1.394000000    -2.451000000
H    -4.113000000    -1.976000000    -1.557000000
O    -4.748000000     1.780000000    -0.529000000
H    -3.329000000     0.337000000    -0.441000000
C    -4.369000000     0.346000000     2.422000000
C    -4.905000000     1.725000000     2.297000000
H    -5.104000000     2.017000000     3.331000000
H    -5.884000000     1.756000000     1.814000000
C    -3.902000000     2.645000000     1.580000000
C    -2.858000000     3.383000000     2.234000000
H    -2.791000000     3.244000000     3.310000000
C    -3.931000000     2.716000000     0.192000000
C    -2.910000000     3.348000000    -0.525000000
H    -2.819000000     3.164000000    -1.592000000
C    -1.915000000     4.123000000     0.109000000
O    -0.846000000     4.539000000    -0.659000000
C     0.454000000     4.025000000    -0.666000000
C     1.084000000     3.860000000    -2.020000000
C     0.355000000     3.554000000    -3.111000000
H    -0.715000000     3.710000000    -3.001000000
C     2.466000000     3.819000000    -2.182000000
H     3.196000000     4.127000000    -1.438000000
O     1.258000000     4.717000000     0.376000000
H     0.188000000     2.997000000    -0.378000000
C    -1.883000000     4.098000000     1.540000000
C    -0.871000000     4.872000000     2.344000000
H    -1.297000000     5.196000000     3.296000000
H    -0.741000000     5.856000000     1.888000000
C     0.379000000     4.062000000     2.523000000
C     1.438000000     4.122000000     1.553000000
C     2.703000000     3.450000000     1.835000000
H     3.509000000     3.431000000     1.106000000
C     2.725000000     2.656000000     2.979000000
O     3.713000000     1.738000000     3.073000000
C     3.446000000     0.475000000     2.477000000
H     2.506000000     0.340000000     1.921000000
C     4.520000000    -0.009000000     1.488000000
C     4.607000000    -1.328000000     1.168000000
H     3.934000000    -1.924000000     1.779000000
C     5.504000000     0.873000000     0.934000000
H     5.457000000     1.942000000     1.127000000
C     6.476000000     0.411000000     0.010000000
O     7.318000000     1.230000000    -0.645000000
C     6.470000000    -0.963000000    -0.320000000
H     7.137000000    -1.454000000    -1.024000000
C     5.532000000    -1.789000000     0.216000000
O     5.568000000    -3.195000000    -0.068000000
C     5.063000000    -4.237000000     0.675000000
C     3.998000000    -4.942000000     0.159000000
H     3.664000000    -4.719000000    -0.852000000
C     5.382000000    -4.393000000     2.039000000
H     6.166000000    -3.798000000     2.500000000
C     4.745000000    -5.388000000     2.762000000
H     4.960000000    -5.651000000     3.795000000
C     3.731000000    -6.172000000     2.187000000
H     3.166000000    -6.870000000     2.798000000
C     3.311000000    -5.904000000     0.887000000
O     2.246000000    -6.518000000     0.311000000
C     1.005000000    -6.026000000     0.331000000
C     0.070000000    -6.546000000    -0.589000000
H     0.334000000    -7.213000000    -1.405000000
C    -1.262000000    -6.050000000    -0.498000000
O    -2.102000000    -6.578000000    -1.432000000
C    -3.251000000    -5.898000000    -1.800000000
C    -3.153000000    -4.800000000    -2.626000000
H    -2.163000000    -4.525000000    -2.982000000
C    -4.482000000    -6.282000000    -1.237000000
H    -4.521000000    -7.096000000    -0.518000000
C    -5.635000000    -5.524000000    -1.644000000
H    -6.594000000    -5.828000000    -1.233000000
C    -5.513000000    -4.422000000    -2.450000000
H    -6.372000000    -3.883000000    -2.842000000
C    -4.317000000    -4.071000000    -2.992000000
O    -4.355000000    -3.151000000    -3.995000000
C    -4.348000000    -1.834000000    -3.709000000
C    -4.422000000    -0.882000000    -4.737000000
H    -4.638000000    -1.217000000    -5.749000000
C    -4.519000000     0.477000000    -4.446000000
O    -4.615000000     1.394000000    -5.498000000
C    -3.626000000     2.354000000    -5.707000000
C    -2.245000000     2.128000000    -5.544000000
H    -1.847000000     1.195000000    -5.152000000
C    -4.096000000     3.627000000    -5.945000000
H    -5.130000000     3.958000000    -5.992000000
C    -3.184000000     4.699000000    -5.977000000
H    -3.500000000     5.726000000    -6.143000000
C    -1.823000000     4.453000000    -5.868000000
H    -1.096000000     5.250000000    -5.734000000
C    -1.339000000     3.169000000    -5.561000000
O    -0.008000000     2.947000000    -5.410000000
C     0.849000000     3.288000000    -4.383000000
C     2.222000000     3.233000000    -4.552000000
H     2.662000000     3.086000000    -5.535000000
C     3.057000000     3.503000000    -3.410000000
O     4.383000000     3.602000000    -3.655000000
C     5.376000000     3.572000000    -2.643000000
C     5.779000000     4.768000000    -2.169000000
H     5.507000000     5.730000000    -2.594000000
C     6.792000000     4.833000000    -1.227000000
H     7.143000000     5.781000000    -0.827000000
C     7.294000000     3.653000000    -0.597000000
H     8.007000000     3.666000000     0.223000000
C     6.797000000     2.446000000    -1.048000000
C     5.882000000     2.409000000    -2.124000000
H     5.558000000     1.472000000    -2.570000000
C     1.703000000    -1.833000000    -1.240000000
H     2.288000000    -2.749000000    -1.216000000
C     1.123000000    -1.309000000    -0.094000000
H     1.255000000    -1.690000000     0.916000000
C     0.348000000    -0.162000000    -0.245000000
H    -0.044000000     0.289000000     0.655000000
C     0.241000000     0.523000000    -1.459000000
H    -0.304000000     1.461000000    -1.516000000
C     0.853000000    -0.039000000    -2.554000000
H     0.610000000     0.413000000    -3.512000000
C     1.633000000    -1.229000000    -2.483000000
C     2.275000000    -1.787000000    -3.780000000
O     1.996000000    -1.173000000    -4.750000000
O     3.067000000    -2.714000000    -3.815000000
O     4.562000000    -1.311000000    -6.228000000
H     3.804000000    -1.108000000    -5.679000000
H     4.711000000    -2.247000000    -6.093000000
O    -0.235000000    -4.779000000    -7.974000000
H     0.395000000    -4.275000000    -8.489000000
H     0.024000000    -5.691000000    -8.104000000
O     2.189000000    -3.206000000    -7.847000000
H     2.126000000    -2.283000000    -8.093000000
H     2.701000000    -3.204000000    -7.038000000
O    -1.865000000    -2.471000000    -7.387000000
H    -1.829000000    -3.426000000    -7.333000000
H    -1.565000000    -2.170000000    -6.529000000
O     4.728000000    -3.922000000    -5.515000000
H     4.164000000    -3.513000000    -4.858000000
H     5.447000000    -4.302000000    -5.010000000
O     6.520000000    -6.094000000    -3.963000000
H     6.613000000    -5.574000000    -3.165000000
H     5.748000000    -6.638000000    -3.805000000
O    -0.274000000    -4.903000000    -4.607000000
H    -0.326000000    -3.948000000    -4.566000000
H    -0.389000000    -5.110000000    -5.535000000
O    -0.993000000    -1.952000000    -4.390000000
H    -1.260000000    -1.273000000    -3.770000000
H    -0.116000000    -1.690000000    -4.669000000
O     4.727000000    -3.954000000    -8.707000000
H     4.028000000    -3.629000000    -9.275000000
H     4.682000000    -3.398000000    -7.929000000
O     3.944000000    -7.015000000    -2.275000000
H     3.557000000    -7.133000000    -1.408000000
H     3.415000000    -6.329000000    -2.683000000
O     3.989000000    -6.312000000    -6.791000000
H     4.936000000    -6.449000000    -6.771000000
H     3.851000000    -5.513000000    -6.282000000
O     1.634000000     3.117000000    -8.159000000
H     1.914000000     2.292000000    -7.763000000
H     0.705000000     3.186000000    -7.937000000
O     2.095000000     0.482000000    -7.003000000
H     1.395000000     0.046000000    -7.489000000
H     2.004000000     0.156000000    -6.108000000
O     2.295000000    -5.112000000    -3.019000000
H     1.531000000    -5.359000000    -3.541000000
H     2.588000000    -4.285000000    -3.402000000
O     6.673000000    -1.393000000    -4.046000000
H     6.040000000    -1.298000000    -4.758000000
H     7.161000000    -0.570000000    -4.048000000
O     0.163000000    -0.837000000    -8.528000000
H    -0.603000000    -1.363000000    -8.299000000
H    -0.148000000    -0.247000000    -9.215000000
O     6.104000000    -3.576000000    -2.782000000
H     6.139000000    -2.656000000    -3.042000000
H     5.715000000    -3.563000000    -1.908000000
O     3.152000000    -0.151000000    -9.674000000
H     2.578000000     0.462000000   -10.135000000
H     2.858000000    -0.114000000    -8.763000000
O     5.620000000     1.655000000    -6.715000000
H     5.184000000     2.030000000    -7.480000000
H     5.126000000     0.858000000    -6.524000000
