215
-1459.02320
C     0.868000000    -5.209000000    -0.329000000
H    -0.175000000    -5.512000000    -0.279000000
C     1.487000000    -4.384000000     0.643000000
C     2.708000000    -3.790000000     0.261000000
H     3.147000000    -3.058000000     0.935000000
C     0.784000000    -3.739000000     1.797000000
O    -0.413000000    -4.510000000     2.198000000
H     0.525000000    -2.727000000     1.452000000
O     1.731000000    -3.684000000     2.870000000
C     1.700000000    -2.539000000     3.670000000
C     2.682000000    -1.589000000     3.420000000
H     3.438000000    -1.846000000     2.683000000
C     2.581000000    -0.294000000     3.965000000
O     3.493000000     0.598000000     3.594000000
C     1.515000000     0.094000000     4.764000000
C     1.255000000     1.519000000     5.246000000
H     0.640000000     1.469000000     6.148000000
C     0.527000000     2.311000000     4.227000000
C    -0.882000000     2.440000000     4.187000000
H    -1.448000000     2.139000000     5.065000000
H     2.207000000     1.958000000     5.551000000
C     0.541000000    -0.899000000     5.021000000
H    -0.358000000    -0.620000000     5.566000000
C     0.541000000    -2.267000000     4.501000000
C    -0.757000000    -3.081000000     4.620000000
H    -1.289000000    -2.781000000     5.525000000
H    -0.458000000    -4.119000000     4.782000000
C    -1.771000000    -3.067000000     3.496000000
C    -2.919000000    -2.292000000     3.651000000
H    -3.202000000    -1.776000000     4.565000000
C    -1.566000000    -3.761000000     2.296000000
C    -2.445000000    -3.675000000     1.294000000
H    -2.265000000    -4.269000000     0.401000000
C    -3.522000000    -2.858000000     1.352000000
O    -4.399000000    -2.626000000     0.302000000
C    -4.164000000    -1.415000000    -0.478000000
C    -4.061000000    -1.759000000    -2.018000000
C    -4.550000000    -0.807000000    -2.960000000
H    -4.909000000     0.151000000    -2.592000000
C    -3.518000000    -2.976000000    -2.452000000
H    -3.205000000    -3.711000000    -1.715000000
O    -5.163000000    -0.447000000    -0.191000000
H    -3.172000000    -1.043000000    -0.182000000
C    -3.731000000    -2.142000000     2.545000000
C    -4.915000000    -1.082000000     2.639000000
H    -5.161000000    -0.921000000     3.690000000
H    -5.784000000    -1.649000000     2.296000000
C    -4.613000000     0.305000000     2.004000000
C    -4.034000000     1.301000000     2.813000000
H    -3.967000000     1.127000000     3.884000000
C    -4.805000000     0.581000000     0.655000000
C    -4.219000000     1.696000000     0.073000000
H    -4.238000000     1.904000000    -0.994000000
C    -3.632000000     2.720000000     0.868000000
O    -3.082000000     3.838000000     0.239000000
C    -1.700000000     3.822000000     0.039000000
C    -1.305000000     4.417000000    -1.276000000
C    -1.929000000     3.973000000    -2.444000000
H    -2.820000000     3.360000000    -2.337000000
C    -0.129000000     5.264000000    -1.356000000
H     0.384000000     5.566000000    -0.446000000
O    -1.181000000     4.565000000     1.141000000
H    -1.386000000     2.770000000    -0.021000000
C    -3.582000000     2.496000000     2.241000000
C    -2.926000000     3.438000000     3.245000000
H    -3.324000000     3.205000000     4.235000000
H    -3.142000000     4.482000000     3.009000000
C    -1.427000000     3.255000000     3.186000000
C    -0.602000000     3.884000000     2.216000000
C     0.732000000     3.753000000     2.218000000
H     1.411000000     4.174000000     1.481000000
C     1.315000000     2.961000000     3.178000000
O     2.694000000     2.813000000     3.030000000
C     3.151000000     1.562000000     2.521000000
H     2.315000000     1.101000000     1.975000000
C     4.318000000     1.795000000     1.541000000
C     5.230000000     0.741000000     1.312000000
H     5.120000000    -0.171000000     1.893000000
C     4.392000000     2.852000000     0.683000000
H     3.564000000     3.557000000     0.675000000
C     5.498000000     3.116000000    -0.129000000
O     5.532000000     4.229000000    -0.996000000
C     6.501000000     2.130000000    -0.149000000
H     7.385000000     2.226000000    -0.774000000
C     6.341000000     0.920000000     0.520000000
O     7.336000000    -0.131000000     0.521000000
C     6.930000000    -1.443000000     0.486000000
C     5.902000000    -1.797000000    -0.354000000
H     5.394000000    -1.095000000    -1.010000000
C     7.575000000    -2.453000000     1.200000000
H     8.532000000    -2.227000000     1.664000000
C     7.231000000    -3.826000000     1.082000000
H     7.880000000    -4.533000000     1.592000000
C     6.182000000    -4.163000000     0.223000000
H     5.998000000    -5.223000000     0.067000000
C     5.492000000    -3.167000000    -0.433000000
O     4.512000000    -3.508000000    -1.341000000
C     3.332000000    -4.059000000    -0.984000000
C     2.703000000    -4.869000000    -1.876000000
H     3.176000000    -5.077000000    -2.832000000
C     1.430000000    -5.475000000    -1.573000000
O     0.905000000    -6.376000000    -2.479000000
C    -0.466000000    -6.372000000    -2.696000000
C    -1.143000000    -5.338000000    -3.349000000
H    -0.618000000    -4.465000000    -3.728000000
C    -1.185000000    -7.538000000    -2.499000000
H    -0.717000000    -8.406000000    -2.042000000
C    -2.552000000    -7.692000000    -2.876000000
H    -3.117000000    -8.610000000    -2.737000000
C    -3.210000000    -6.599000000    -3.409000000
H    -4.215000000    -6.738000000    -3.797000000
C    -2.498000000    -5.390000000    -3.598000000
O    -3.152000000    -4.442000000    -4.325000000
C    -3.426000000    -3.235000000    -3.832000000
C    -3.812000000    -2.300000000    -4.729000000
H    -3.725000000    -2.458000000    -5.801000000
C    -4.407000000    -1.081000000    -4.322000000
O    -4.806000000    -0.144000000    -5.249000000
C    -4.531000000     1.161000000    -5.203000000
C    -3.264000000     1.667000000    -4.823000000
H    -2.390000000     1.061000000    -4.596000000
C    -5.496000000     2.050000000    -5.575000000
H    -6.514000000     1.686000000    -5.690000000
C    -5.248000000     3.389000000    -5.795000000
H    -6.031000000     4.081000000    -6.097000000
C    -3.944000000     3.891000000    -5.659000000
H    -3.561000000     4.897000000    -5.807000000
C    -2.999000000     3.014000000    -5.121000000
O    -1.730000000     3.521000000    -4.865000000
C    -1.338000000     4.123000000    -3.679000000
C    -0.177000000     4.940000000    -3.748000000
H     0.385000000     5.121000000    -4.661000000
C     0.442000000     5.468000000    -2.610000000
O     1.612000000     6.249000000    -2.677000000
C     2.515000000     6.274000000    -1.653000000
C     2.719000000     7.236000000    -0.669000000
H     1.945000000     7.976000000    -0.482000000
C     3.839000000     7.212000000     0.154000000
H     3.925000000     8.041000000     0.851000000
C     4.869000000     6.260000000     0.064000000
H     5.770000000     6.252000000     0.672000000
C     4.650000000     5.298000000    -0.890000000
C     3.550000000     5.335000000    -1.795000000
H     3.564000000     4.554000000    -2.552000000
C     2.096000000    -1.259000000    -1.750000000
H     3.118000000    -1.595000000    -1.906000000
C     1.610000000    -0.823000000    -0.536000000
H     2.256000000    -0.801000000     0.337000000
C     0.311000000    -0.367000000    -0.432000000
H    -0.028000000     0.022000000     0.554000000
C    -0.470000000    -0.275000000    -1.611000000
H    -1.517000000     0.014000000    -1.568000000
C    -0.047000000    -0.901000000    -2.781000000
H    -0.698000000    -1.032000000    -3.642000000
C     1.256000000    -1.454000000    -2.861000000
C     1.686000000    -2.175000000    -4.118000000
O     0.791000000    -2.684000000    -4.675000000
O     2.818000000    -2.428000000    -4.465000000
O     4.357000000    -0.485000000    -4.089000000
H     3.806000000     0.194000000    -3.698000000
H     3.776000000    -1.240000000    -4.184000000
O     6.213000000    -1.824000000    -7.078000000
H     5.262000000    -1.885000000    -6.986000000
H     6.344000000    -1.215000000    -7.805000000
O     3.955000000     3.467000000    -4.663000000
H     3.839000000     2.677000000    -4.135000000
H     3.370000000     3.344000000    -5.410000000
O     4.115000000    -4.435000000    -8.545000000
H     4.632000000    -5.125000000    -8.129000000
H     3.627000000    -4.885000000    -9.235000000
O    -0.740000000    -0.283000000    -6.371000000
H    -0.726000000     0.257000000    -7.162000000
H    -0.947000000    -1.163000000    -6.686000000
O     4.807000000     1.233000000    -6.444000000
H     4.104000000     0.907000000    -7.006000000
H     4.544000000     0.979000000    -5.560000000
O    -0.312000000    -6.442000000    -6.890000000
H    -0.183000000    -6.945000000    -6.086000000
H     0.481000000    -5.911000000    -6.969000000
O     1.693000000    -5.251000000    -5.088000000
H     1.472000000    -5.659000000    -4.251000000
H     1.540000000    -4.317000000    -4.947000000
O    -1.917000000    -1.493000000    -8.875000000
H    -2.750000000    -1.167000000    -8.536000000
H    -1.798000000    -2.340000000    -8.445000000
O     2.955000000     1.618000000    -3.010000000
H     2.195000000     1.449000000    -3.567000000
H     2.647000000     1.436000000    -2.123000000
O     1.374000000     1.187000000    -5.438000000
H     1.807000000     1.250000000    -6.289000000
H     0.687000000     0.532000000    -5.567000000
O     6.891000000    -0.824000000    -4.166000000
H     7.046000000    -0.727000000    -5.105000000
H     5.939000000    -0.876000000    -4.084000000
O     2.716000000    -7.804000000    -6.719000000
H     2.614000000    -6.939000000    -6.321000000
H     3.650000000    -7.995000000    -6.639000000
O     3.196000000    -2.204000000    -7.374000000
H     2.796000000    -2.308000000    -6.511000000
H     3.554000000    -3.067000000    -7.578000000
O     4.509000000    -4.317000000    -5.199000000
H     3.807000000    -4.753000000    -5.683000000
H     4.092000000    -3.545000000    -4.815000000
O     0.882000000    -3.882000000    -8.938000000
H     1.759000000    -3.508000000    -8.861000000
H     0.350000000    -3.375000000    -8.325000000
O    -0.917000000    -3.192000000    -6.755000000
H    -0.249000000    -3.082000000    -6.078000000
H    -1.352000000    -4.015000000    -6.531000000
O     7.373000000    -4.871000000    -5.132000000
H     7.548000000    -4.308000000    -4.377000000
H     6.448000000    -4.727000000    -5.329000000
O     2.584000000     0.343000000    -7.737000000
H     1.882000000     0.467000000    -8.376000000
H     2.720000000    -0.604000000    -7.712000000
