215
-1445.52883
C     1.885000000    -5.305000000     0.503000000
H     0.966000000    -5.804000000     0.802000000
C     2.318000000    -4.221000000     1.276000000
C     3.586000000    -3.718000000     0.944000000
H     4.039000000    -2.854000000     1.424000000
C     1.439000000    -3.487000000     2.266000000
O     0.458000000    -4.365000000     2.809000000
H     0.975000000    -2.658000000     1.712000000
O     2.203000000    -2.917000000     3.360000000
C     1.858000000    -1.701000000     3.879000000
C     2.730000000    -0.636000000     3.524000000
H     3.613000000    -0.719000000     2.895000000
C     2.400000000     0.646000000     3.900000000
O     3.204000000     1.661000000     3.424000000
C     1.307000000     0.885000000     4.749000000
C     0.900000000     2.269000000     5.127000000
H     0.195000000     2.258000000     5.960000000
C     0.126000000     2.955000000     4.043000000
C    -1.288000000     2.784000000     4.002000000
H    -1.706000000     2.174000000     4.799000000
H     1.793000000     2.837000000     5.397000000
C     0.473000000    -0.235000000     5.120000000
H    -0.314000000    -0.078000000     5.854000000
C     0.777000000    -1.484000000     4.687000000
C    -0.245000000    -2.549000000     5.021000000
H    -0.832000000    -2.221000000     5.882000000
H     0.329000000    -3.422000000     5.339000000
C    -1.174000000    -2.876000000     3.872000000
C    -2.473000000    -2.342000000     3.850000000
H    -2.797000000    -1.803000000     4.736000000
C    -0.803000000    -3.825000000     2.859000000
C    -1.656000000    -4.081000000     1.818000000
H    -1.317000000    -4.592000000     0.920000000
C    -2.757000000    -3.277000000     1.613000000
O    -3.348000000    -3.338000000     0.436000000
C    -3.320000000    -2.220000000    -0.479000000
C    -3.180000000    -2.727000000    -1.938000000
C    -3.498000000    -1.776000000    -2.935000000
H    -4.039000000    -0.882000000    -2.634000000
C    -2.415000000    -3.900000000    -2.126000000
H    -2.235000000    -4.649000000    -1.358000000
O    -4.447000000    -1.349000000    -0.356000000
H    -2.400000000    -1.666000000    -0.240000000
C    -3.274000000    -2.510000000     2.708000000
C    -4.600000000    -1.721000000     2.506000000
H    -5.082000000    -1.643000000     3.483000000
H    -5.313000000    -2.288000000     1.904000000
C    -4.310000000    -0.350000000     1.916000000
C    -4.079000000     0.803000000     2.714000000
H    -3.987000000     0.756000000     3.796000000
C    -4.341000000    -0.249000000     0.481000000
C    -4.374000000     1.009000000    -0.093000000
H    -4.640000000     1.094000000    -1.144000000
C    -4.039000000     2.085000000     0.690000000
O    -3.792000000     3.256000000     0.050000000
C    -2.505000000     3.558000000    -0.303000000
C    -2.319000000     4.183000000    -1.653000000
C    -3.082000000     3.753000000    -2.708000000
H    -3.903000000     3.054000000    -2.569000000
C    -1.358000000     5.150000000    -1.901000000
H    -0.652000000     5.440000000    -1.127000000
O    -2.093000000     4.495000000     0.761000000
H    -1.904000000     2.637000000    -0.329000000
C    -3.890000000     2.059000000     2.104000000
C    -3.532000000     3.305000000     2.921000000
H    -3.850000000     3.244000000     3.964000000
H    -4.025000000     4.161000000     2.455000000
C    -1.997000000     3.450000000     2.991000000
C    -1.395000000     4.067000000     1.897000000
C     0.002000000     4.123000000     1.904000000
H     0.412000000     4.718000000     1.092000000
C     0.764000000     3.609000000     2.985000000
O     2.112000000     3.740000000     2.863000000
C     2.752000000     2.522000000     2.373000000
H     1.969000000     2.012000000     1.793000000
C     3.844000000     2.782000000     1.305000000
C     4.756000000     1.740000000     0.933000000
H     4.847000000     0.812000000     1.491000000
C     3.744000000     3.966000000     0.550000000
H     3.024000000     4.761000000     0.725000000
C     4.371000000     3.946000000    -0.709000000
O     4.214000000     4.942000000    -1.580000000
C     5.311000000     2.999000000    -1.074000000
H     5.867000000     3.172000000    -1.993000000
C     5.520000000     1.899000000    -0.253000000
O     6.394000000     0.936000000    -0.692000000
C     6.541000000    -0.288000000    -0.122000000
C     5.916000000    -1.360000000    -0.758000000
H     5.316000000    -1.274000000    -1.660000000
C     7.368000000    -0.404000000     1.025000000
H     7.897000000     0.495000000     1.330000000
C     7.516000000    -1.689000000     1.562000000
H     8.187000000    -1.809000000     2.409000000
C     6.833000000    -2.790000000     1.003000000
H     6.975000000    -3.790000000     1.404000000
C     6.123000000    -2.633000000    -0.199000000
O     5.440000000    -3.675000000    -0.650000000
C     4.267000000    -4.229000000    -0.187000000
C     3.761000000    -5.268000000    -0.906000000
H     4.321000000    -5.679000000    -1.742000000
C     2.618000000    -5.865000000    -0.528000000
O     2.325000000    -7.039000000    -1.137000000
C     1.081000000    -7.143000000    -1.636000000
C     0.489000000    -6.081000000    -2.339000000
H     0.928000000    -5.089000000    -2.401000000
C     0.456000000    -8.388000000    -1.613000000
H     1.003000000    -9.216000000    -1.167000000
C    -0.795000000    -8.603000000    -2.176000000
H    -1.291000000    -9.561000000    -2.038000000
C    -1.452000000    -7.557000000    -2.807000000
H    -2.430000000    -7.794000000    -3.217000000
C    -0.854000000    -6.274000000    -2.894000000
O    -1.397000000    -5.375000000    -3.804000000
C    -2.040000000    -4.167000000    -3.451000000
C    -2.342000000    -3.275000000    -4.510000000
H    -2.016000000    -3.422000000    -5.537000000
C    -3.030000000    -2.092000000    -4.208000000
O    -3.174000000    -1.149000000    -5.217000000
C    -3.938000000     0.012000000    -5.260000000
C    -3.429000000     1.279000000    -5.025000000
H    -2.354000000     1.377000000    -4.892000000
C    -5.299000000    -0.148000000    -5.465000000
H    -5.709000000    -1.154000000    -5.512000000
C    -6.128000000     0.961000000    -5.634000000
H    -7.213000000     0.963000000    -5.701000000
C    -5.560000000     2.247000000    -5.537000000
H    -6.123000000     3.156000000    -5.734000000
C    -4.223000000     2.372000000    -5.092000000
O    -3.657000000     3.660000000    -5.084000000
C    -2.838000000     4.195000000    -4.013000000
C    -1.807000000     5.164000000    -4.279000000
H    -1.513000000     5.500000000    -5.270000000
C    -1.029000000     5.580000000    -3.210000000
O     0.069000000     6.385000000    -3.382000000
C     1.122000000     6.555000000    -2.521000000
C     1.348000000     7.853000000    -1.905000000
H     0.556000000     8.584000000    -2.047000000
C     2.496000000     8.129000000    -1.216000000
H     2.622000000     9.097000000    -0.738000000
C     3.418000000     7.102000000    -1.005000000
H     4.366000000     7.254000000    -0.496000000
C     3.252000000     5.856000000    -1.578000000
C     2.104000000     5.605000000    -2.350000000
H     1.961000000     4.680000000    -2.904000000
C     1.718000000    -1.409000000    -1.163000000
H     2.673000000    -1.922000000    -1.084000000
C     1.218000000    -0.747000000    -0.016000000
H     1.816000000    -0.693000000     0.890000000
C     0.000000000    -0.089000000    -0.135000000
H    -0.456000000     0.293000000     0.680000000
C    -0.696000000    -0.013000000    -1.327000000
H    -1.650000000     0.507000000    -1.301000000
C    -0.236000000    -0.707000000    -2.450000000
H    -0.745000000    -0.669000000    -3.410000000
C     0.940000000    -1.466000000    -2.325000000
C     1.600000000    -2.164000000    -3.555000000
O     1.047000000    -2.185000000    -4.628000000
O     2.772000000    -2.382000000    -3.466000000
O     1.189000000    -0.985000000    -9.596000000
H     1.417000000    -1.510000000   -10.363000000
H     1.054000000    -1.626000000    -8.898000000
O     2.313000000     0.902000000    -5.234000000
H     2.061000000     1.349000000    -4.426000000
H     1.487000000     0.588000000    -5.602000000
O    -0.113000000    -3.711000000    -9.232000000
H    -0.008000000    -3.758000000    -8.281000000
H    -0.744000000    -4.401000000    -9.438000000
O     6.651000000     1.146000000    -5.156000000
H     6.167000000     1.888000000    -5.519000000
H     5.977000000     0.584000000    -4.774000000
O     4.540000000    -0.962000000    -4.871000000
H     3.953000000    -1.461000000    -4.304000000
H     3.956000000    -0.479000000    -5.456000000
O    -0.292000000    -0.189000000    -6.115000000
H    -0.992000000    -0.523000000    -6.676000000
H     0.061000000    -0.966000000    -5.683000000
O     3.881000000    -2.475000000    -8.073000000
H     3.950000000    -3.382000000    -8.369000000
H     3.230000000    -2.501000000    -7.371000000
O     4.083000000    -4.565000000    -4.614000000
H     4.741000000    -3.918000000    -4.866000000
H     3.514000000    -4.102000000    -3.999000000
O     0.749000000     2.343000000    -3.424000000
H     0.151000000     1.685000000    -3.072000000
H     1.067000000     2.815000000    -2.654000000
O    -1.118000000     1.860000000    -7.451000000
H    -0.618000000     1.251000000    -6.908000000
H    -1.041000000     1.509000000    -8.338000000
O     3.714000000    -7.495000000    -3.610000000
H     3.483000000    -6.676000000    -4.049000000
H     3.031000000    -7.613000000    -2.949000000
O     6.856000000    -5.831000000    -3.342000000
H     7.185000000    -6.726000000    -3.426000000
H     6.175000000    -5.763000000    -4.011000000
O     0.423000000    -3.729000000    -6.544000000
H     1.251000000    -4.160000000    -6.755000000
H     0.638000000    -3.136000000    -5.824000000
O     7.196000000    -1.747000000    -6.188000000
H     7.441000000    -2.561000000    -5.748000000
H     6.330000000    -1.536000000    -5.839000000
O     2.630000000    -5.255000000    -6.764000000
H     3.096000000    -5.058000000    -5.952000000
H     2.601000000    -6.211000000    -6.799000000
O    -2.058000000    -5.533000000    -7.168000000
H    -1.790000000    -5.955000000    -7.985000000
H    -1.249000000    -5.454000000    -6.663000000
O     7.560000000    -3.173000000    -3.903000000
H     8.239000000    -3.106000000    -3.232000000
H     7.218000000    -4.063000000    -3.809000000
O     2.159000000     2.390000000    -8.244000000
H     1.820000000     3.262000000    -8.041000000
H     1.439000000     1.797000000    -8.028000000
O    -2.351000000    -0.819000000    -7.966000000
H    -2.792000000    -1.131000000    -8.756000000
H    -3.058000000    -0.672000000    -7.339000000
