215
-1469.02071
C     1.469000000    -4.649000000    -0.422000000
H     0.412000000    -4.837000000    -0.254000000
C     2.274000000    -4.038000000     0.568000000
C     3.627000000    -3.737000000     0.332000000
H     4.240000000    -3.131000000     0.995000000
C     1.661000000    -3.497000000     1.786000000
O     0.517000000    -4.299000000     2.242000000
H     1.284000000    -2.512000000     1.473000000
O     2.604000000    -3.220000000     2.876000000
C     2.422000000    -2.010000000     3.544000000
C     3.290000000    -1.003000000     3.143000000
H     4.170000000    -1.167000000     2.526000000
C     3.011000000     0.321000000     3.660000000
O     3.783000000     1.423000000     3.236000000
C     1.924000000     0.532000000     4.480000000
C     1.570000000     1.916000000     4.972000000
H     1.122000000     1.959000000     5.967000000
C     0.748000000     2.765000000     3.988000000
C    -0.668000000     2.827000000     4.121000000
H    -1.018000000     2.335000000     5.025000000
H     2.548000000     2.371000000     5.145000000
C     1.081000000    -0.551000000     4.848000000
H     0.207000000    -0.497000000     5.491000000
C     1.359000000    -1.826000000     4.365000000
C     0.380000000    -2.920000000     4.737000000
H     0.021000000    -2.670000000     5.738000000
H     0.836000000    -3.910000000     4.796000000
C    -0.829000000    -2.994000000     3.750000000
C    -1.974000000    -2.290000000     4.010000000
H    -2.045000000    -1.695000000     4.917000000
C    -0.671000000    -3.643000000     2.552000000
C    -1.780000000    -3.715000000     1.698000000
H    -1.524000000    -4.092000000     0.711000000
C    -2.906000000    -2.997000000     1.935000000
O    -3.736000000    -2.893000000     0.876000000
C    -3.688000000    -1.720000000     0.024000000
C    -3.712000000    -2.139000000    -1.418000000
C    -4.260000000    -1.347000000    -2.428000000
H    -4.407000000    -0.284000000    -2.257000000
C    -3.248000000    -3.422000000    -1.815000000
H    -2.890000000    -4.109000000    -1.052000000
O    -4.755000000    -0.877000000     0.299000000
H    -2.772000000    -1.127000000     0.158000000
C    -3.013000000    -2.189000000     3.067000000
C    -4.214000000    -1.227000000     3.334000000
H    -4.202000000    -0.894000000     4.374000000
H    -5.204000000    -1.680000000     3.245000000
C    -4.239000000     0.044000000     2.540000000
C    -3.742000000     1.147000000     3.242000000
H    -3.429000000     1.020000000     4.275000000
C    -4.573000000     0.151000000     1.173000000
C    -4.511000000     1.431000000     0.615000000
H    -4.811000000     1.523000000    -0.426000000
C    -4.038000000     2.533000000     1.310000000
O    -3.732000000     3.656000000     0.587000000
C    -2.403000000     3.875000000     0.156000000
C    -2.267000000     4.360000000    -1.275000000
C    -2.966000000     3.658000000    -2.260000000
H    -3.674000000     2.876000000    -1.999000000
C    -1.256000000     5.192000000    -1.650000000
H    -0.697000000     5.678000000    -0.853000000
O    -1.613000000     4.671000000     1.094000000
H    -1.917000000     2.888000000     0.136000000
C    -3.641000000     2.370000000     2.613000000
C    -2.916000000     3.539000000     3.382000000
H    -3.012000000     3.342000000     4.451000000
H    -3.301000000     4.552000000     3.251000000
C    -1.440000000     3.479000000     3.178000000
C    -0.829000000     4.129000000     2.079000000
C     0.567000000     4.118000000     1.924000000
H     1.074000000     4.548000000     1.064000000
C     1.332000000     3.429000000     2.886000000
O     2.670000000     3.275000000     2.616000000
C     3.220000000     2.072000000     2.141000000
H     2.359000000     1.462000000     1.832000000
C     4.090000000     2.274000000     0.925000000
C     5.217000000     1.457000000     0.760000000
H     5.490000000     0.750000000     1.539000000
C     3.697000000     3.171000000    -0.076000000
H     2.826000000     3.805000000     0.071000000
C     4.440000000     3.193000000    -1.236000000
O     4.005000000     3.759000000    -2.392000000
C     5.564000000     2.308000000    -1.427000000
H     6.170000000     2.352000000    -2.329000000
C     6.025000000     1.533000000    -0.394000000
O     7.067000000     0.644000000    -0.581000000
C     7.068000000    -0.751000000    -0.237000000
C     6.164000000    -1.723000000    -0.787000000
H     5.457000000    -1.438000000    -1.562000000
C     8.027000000    -1.203000000     0.690000000
H     8.714000000    -0.570000000     1.247000000
C     8.206000000    -2.605000000     0.850000000
H     9.026000000    -2.936000000     1.482000000
C     7.407000000    -3.577000000     0.200000000
H     7.563000000    -4.649000000     0.287000000
C     6.358000000    -3.108000000    -0.665000000
O     5.546000000    -4.029000000    -1.203000000
C     4.173000000    -4.117000000    -0.882000000
C     3.377000000    -4.767000000    -1.846000000
H     3.763000000    -5.040000000    -2.825000000
C     2.041000000    -4.975000000    -1.625000000
O     1.381000000    -5.612000000    -2.683000000
C     0.141000000    -6.206000000    -2.627000000
C    -0.907000000    -5.419000000    -3.005000000
H    -0.672000000    -4.407000000    -3.324000000
C    -0.058000000    -7.494000000    -2.259000000
H     0.769000000    -8.155000000    -2.014000000
C    -1.340000000    -8.007000000    -2.191000000
H    -1.588000000    -9.036000000    -1.942000000
C    -2.408000000    -7.210000000    -2.558000000
H    -3.380000000    -7.695000000    -2.567000000
C    -2.210000000    -5.934000000    -2.983000000
O    -3.274000000    -5.238000000    -3.336000000
C    -3.429000000    -3.890000000    -3.115000000
C    -4.085000000    -3.157000000    -4.083000000
H    -4.273000000    -3.564000000    -5.073000000
C    -4.541000000    -1.848000000    -3.700000000
O    -5.194000000    -1.138000000    -4.684000000
C    -5.313000000     0.228000000    -4.576000000
C    -4.191000000     1.077000000    -4.564000000
H    -3.164000000     0.732000000    -4.655000000
C    -6.582000000     0.736000000    -4.412000000
H    -7.474000000     0.115000000    -4.377000000
C    -6.774000000     2.074000000    -4.144000000
H    -7.791000000     2.423000000    -3.985000000
C    -5.690000000     2.935000000    -4.174000000
H    -5.888000000     3.996000000    -4.050000000
C    -4.407000000     2.439000000    -4.490000000
O    -3.309000000     3.360000000    -4.654000000
C    -2.647000000     3.917000000    -3.644000000
C    -1.665000000     4.824000000    -4.005000000
H    -1.445000000     4.909000000    -5.066000000
C    -0.974000000     5.382000000    -3.003000000
O    -0.031000000     6.292000000    -3.380000000
C     1.197000000     6.243000000    -2.854000000
C     1.761000000     7.363000000    -2.201000000
H     1.172000000     8.276000000    -2.184000000
C     3.054000000     7.185000000    -1.701000000
H     3.454000000     8.061000000    -1.195000000
C     3.785000000     6.041000000    -1.784000000
H     4.772000000     5.896000000    -1.354000000
C     3.192000000     4.896000000    -2.351000000
C     1.920000000     4.990000000    -2.954000000
H     1.435000000     4.154000000    -3.451000000
C     2.039000000    -1.176000000    -1.710000000
H     3.100000000    -1.376000000    -1.837000000
C     1.631000000    -0.602000000    -0.505000000
H     2.273000000    -0.360000000     0.337000000
C     0.292000000    -0.306000000    -0.328000000
H    -0.119000000     0.165000000     0.530000000
C    -0.691000000    -0.454000000    -1.357000000
H    -1.726000000    -0.129000000    -1.287000000
C    -0.234000000    -1.063000000    -2.526000000
H    -0.915000000    -1.289000000    -3.342000000
C     1.127000000    -1.403000000    -2.706000000
C     1.542000000    -2.227000000    -3.872000000
O     0.732000000    -2.388000000    -4.811000000
O     2.702000000    -2.535000000    -4.073000000
O     2.940000000    -0.745000000    -8.440000000
H     2.076000000    -0.343000000    -8.522000000
H     2.772000000    -1.593000000    -8.028000000
O     2.073000000     3.266000000    -6.254000000
H     2.062000000     3.651000000    -7.130000000
H     1.150000000     3.125000000    -6.043000000
O     4.805000000    -3.668000000    -8.431000000
H     5.077000000    -4.183000000    -9.190000000
H     3.871000000    -3.510000000    -8.570000000
O     3.446000000     1.372000000    -4.566000000
H     3.066000000     1.208000000    -3.702000000
H     3.052000000     2.198000000    -4.847000000
O     0.668000000    -2.905000000    -9.634000000
H     1.385000000    -3.122000000    -9.038000000
H     0.386000000    -3.749000000    -9.988000000
O     5.394000000    -0.615000000    -3.925000000
H     5.235000000    -1.315000000    -4.557000000
H     4.766000000     0.068000000    -4.161000000
O    -0.614000000    -0.593000000    -5.814000000
H    -0.917000000    -1.277000000    -6.411000000
H    -0.031000000    -1.047000000    -5.206000000
O    -0.499000000    -6.790000000    -6.579000000
H    -0.718000000    -7.009000000    -7.485000000
H    -1.196000000    -7.191000000    -6.060000000
O     2.303000000    -4.911000000    -5.233000000
H     1.580000000    -5.288000000    -4.732000000
H     2.678000000    -4.250000000    -4.651000000
O    -2.904000000    -4.229000000    -8.187000000
H    -3.844000000    -4.340000000    -8.045000000
H    -2.528000000    -4.212000000    -7.307000000
O     0.691000000     1.856000000    -2.858000000
H     0.243000000     2.157000000    -3.649000000
H     0.236000000     1.050000000    -2.616000000
O    -0.383000000     2.167000000    -5.350000000
H    -0.471000000     1.214000000    -5.331000000
H    -1.243000000     2.481000000    -5.629000000
O     2.050000000    -2.963000000    -7.033000000
H     2.037000000    -3.920000000    -7.040000000
H     1.705000000    -2.726000000    -6.172000000
O     4.766000000    -2.705000000    -5.792000000
H     4.482000000    -2.919000000    -6.681000000
H     3.965000000    -2.740000000    -5.270000000
O     2.073000000    -7.405000000    -6.711000000
H     2.505000000    -6.655000000    -6.302000000
H     1.138000000    -7.242000000    -6.583000000
O    -1.105000000    -4.008000000    -5.919000000
H    -0.341000000    -3.572000000    -5.542000000
H    -0.753000000    -4.799000000    -6.327000000
O     6.883000000    -3.779000000    -4.541000000
H     6.858000000    -3.562000000    -3.609000000
H     6.166000000    -3.275000000    -4.924000000
O     0.522000000     0.638000000    -8.211000000
H    -0.092000000     0.257000000    -7.583000000
H    -0.028000000     0.924000000    -8.941000000
O    -1.748000000    -1.621000000    -8.392000000
H    -2.183000000    -2.473000000    -8.355000000
H    -0.916000000    -1.796000000    -8.831000000
