215
-1463.98615
C     1.880000000    -4.762000000     0.040000000
H     0.813000000    -4.791000000    -0.167000000
C     2.395000000    -4.164000000     1.193000000
C     3.764000000    -3.925000000     1.258000000
H     4.193000000    -3.366000000     2.086000000
C     1.399000000    -3.374000000     2.105000000
O     0.289000000    -4.187000000     2.377000000
H     1.043000000    -2.425000000     1.676000000
O     1.998000000    -3.063000000     3.355000000
C     1.668000000    -1.907000000     3.987000000
C     2.439000000    -0.793000000     3.678000000
H     3.290000000    -0.991000000     3.032000000
C     2.081000000     0.474000000     4.000000000
O     2.921000000     1.500000000     3.667000000
C     0.932000000     0.672000000     4.817000000
C     0.364000000     2.135000000     5.253000000
H    -0.396000000     2.156000000     6.037000000
C    -0.211000000     2.872000000     4.055000000
C    -1.565000000     2.751000000     3.865000000
H    -2.116000000     2.185000000     4.613000000
H     1.228000000     2.739000000     5.535000000
C     0.157000000    -0.526000000     5.168000000
H    -0.806000000    -0.387000000     5.653000000
C     0.485000000    -1.743000000     4.659000000
C    -0.618000000    -2.862000000     4.808000000
H    -1.201000000    -2.804000000     5.730000000
H    -0.096000000    -3.821000000     4.814000000
C    -1.449000000    -3.030000000     3.647000000
C    -2.646000000    -2.319000000     3.641000000
H    -2.856000000    -1.677000000     4.493000000
C    -1.023000000    -3.736000000     2.463000000
C    -1.902000000    -3.821000000     1.372000000
H    -1.750000000    -4.336000000     0.427000000
C    -3.112000000    -3.177000000     1.428000000
O    -3.961000000    -3.314000000     0.319000000
C    -3.875000000    -2.212000000    -0.617000000
C    -3.670000000    -2.629000000    -2.114000000
C    -4.110000000    -1.788000000    -3.151000000
H    -4.577000000    -0.828000000    -2.945000000
C    -2.935000000    -3.820000000    -2.422000000
H    -2.729000000    -4.436000000    -1.551000000
O    -5.033000000    -1.305000000    -0.475000000
H    -2.938000000    -1.724000000    -0.309000000
C    -3.536000000    -2.446000000     2.547000000
C    -4.862000000    -1.639000000     2.444000000
H    -5.431000000    -1.429000000     3.353000000
H    -5.600000000    -2.217000000     1.885000000
C    -4.721000000    -0.313000000     1.702000000
C    -4.337000000     0.753000000     2.424000000
H    -4.295000000     0.673000000     3.507000000
C    -4.806000000    -0.214000000     0.313000000
C    -4.617000000     1.024000000    -0.291000000
H    -4.582000000     1.017000000    -1.377000000
C    -4.074000000     2.070000000     0.413000000
O    -3.564000000     3.174000000    -0.232000000
C    -2.143000000     3.448000000    -0.218000000
C    -1.633000000     3.798000000    -1.639000000
C    -2.182000000     3.286000000    -2.774000000
H    -3.084000000     2.680000000    -2.754000000
C    -0.639000000     4.776000000    -1.755000000
H    -0.303000000     5.370000000    -0.909000000
O    -1.969000000     4.547000000     0.695000000
H    -1.515000000     2.621000000     0.147000000
C    -4.022000000     1.961000000     1.791000000
C    -3.734000000     3.098000000     2.711000000
H    -4.190000000     2.998000000     3.698000000
H    -4.211000000     3.941000000     2.207000000
C    -2.237000000     3.345000000     2.827000000
C    -1.462000000     4.079000000     1.890000000
C    -0.120000000     4.192000000     2.085000000
H     0.447000000     4.710000000     1.316000000
C     0.558000000     3.605000000     3.167000000
O     1.980000000     3.555000000     3.055000000
C     2.469000000     2.317000000     2.562000000
H     1.667000000     1.740000000     2.078000000
C     3.568000000     2.500000000     1.498000000
C     4.302000000     1.420000000     1.059000000
H     3.988000000     0.455000000     1.450000000
C     3.730000000     3.715000000     0.887000000
H     3.125000000     4.576000000     1.158000000
C     4.632000000     3.862000000    -0.162000000
O     4.871000000     5.073000000    -0.715000000
C     5.471000000     2.853000000    -0.573000000
H     6.008000000     2.909000000    -1.516000000
C     5.298000000     1.580000000     0.023000000
O     6.034000000     0.415000000    -0.540000000
C     6.395000000    -0.628000000     0.266000000
C     6.110000000    -1.967000000    -0.067000000
H     5.522000000    -2.231000000    -0.943000000
C     7.142000000    -0.411000000     1.446000000
H     7.278000000     0.611000000     1.791000000
C     7.535000000    -1.439000000     2.276000000
H     8.109000000    -1.226000000     3.174000000
C     7.188000000    -2.751000000     1.953000000
H     7.546000000    -3.543000000     2.607000000
C     6.536000000    -2.985000000     0.781000000
O     6.046000000    -4.301000000     0.438000000
C     4.645000000    -4.475000000     0.275000000
C     4.206000000    -5.109000000    -0.795000000
H     4.820000000    -5.295000000    -1.673000000
C     2.787000000    -5.264000000    -0.932000000
O     2.345000000    -5.683000000    -2.188000000
C     1.037000000    -6.187000000    -2.416000000
C     0.019000000    -5.465000000    -3.041000000
H     0.238000000    -4.473000000    -3.429000000
C     0.788000000    -7.535000000    -2.066000000
H     1.608000000    -8.114000000    -1.649000000
C    -0.455000000    -8.190000000    -2.313000000
H    -0.668000000    -9.231000000    -2.084000000
C    -1.442000000    -7.448000000    -2.901000000
H    -2.438000000    -7.871000000    -3.003000000
C    -1.228000000    -6.108000000    -3.337000000
O    -2.187000000    -5.440000000    -4.054000000
C    -2.712000000    -4.195000000    -3.721000000
C    -3.132000000    -3.284000000    -4.762000000
H    -3.060000000    -3.623000000    -5.793000000
C    -3.761000000    -2.119000000    -4.469000000
O    -4.114000000    -1.224000000    -5.504000000
C    -4.224000000     0.103000000    -5.377000000
C    -3.131000000     0.905000000    -5.294000000
H    -2.155000000     0.441000000    -5.174000000
C    -5.483000000     0.648000000    -5.404000000
H    -6.377000000     0.065000000    -5.611000000
C    -5.597000000     2.019000000    -5.477000000
H    -6.541000000     2.483000000    -5.752000000
C    -4.483000000     2.874000000    -5.500000000
H    -4.706000000     3.909000000    -5.747000000
C    -3.226000000     2.297000000    -5.383000000
O    -2.103000000     3.024000000    -5.261000000
C    -1.622000000     3.528000000    -3.987000000
C    -0.461000000     4.376000000    -4.137000000
H    -0.095000000     4.634000000    -5.127000000
C    -0.075000000     5.059000000    -3.000000000
O     0.724000000     6.132000000    -3.168000000
C     1.829000000     6.476000000    -2.397000000
C     1.911000000     7.863000000    -2.052000000
H     1.100000000     8.479000000    -2.433000000
C     2.929000000     8.283000000    -1.192000000
H     2.951000000     9.329000000    -0.898000000
C     3.938000000     7.348000000    -0.838000000
H     4.816000000     7.563000000    -0.235000000
C     3.858000000     5.974000000    -1.171000000
C     2.763000000     5.531000000    -1.939000000
H     2.680000000     4.493000000    -2.251000000
C     1.156000000    -1.526000000    -1.871000000
H     2.045000000    -2.064000000    -2.191000000
C     1.042000000    -0.955000000    -0.578000000
H     1.851000000    -1.064000000     0.139000000
C    -0.079000000    -0.198000000    -0.263000000
H    -0.224000000     0.350000000     0.687000000
C    -0.982000000     0.131000000    -1.223000000
H    -1.825000000     0.749000000    -0.923000000
C    -0.769000000    -0.303000000    -2.526000000
H    -1.543000000    -0.132000000    -3.270000000
C     0.272000000    -1.207000000    -2.880000000
C     0.401000000    -1.686000000    -4.263000000
O    -0.457000000    -1.293000000    -5.036000000
O     1.328000000    -2.325000000    -4.714000000
O     3.494000000     2.673000000    -4.292000000
H     3.102000000     2.337000000    -3.486000000
H     4.255000000     3.173000000    -3.997000000
O    -1.662000000    -0.317000000    -9.906000000
H    -1.979000000     0.551000000    -9.656000000
H    -1.615000000    -0.802000000    -9.082000000
O     1.284000000     2.209000000    -8.882000000
H     1.909000000     2.850000000    -8.544000000
H     0.873000000     1.840000000    -8.100000000
O     3.371000000    -3.647000000    -4.056000000
H     2.609000000    -3.227000000    -4.454000000
H     3.062000000    -4.520000000    -3.811000000
O     0.471000000    -6.420000000    -9.191000000
H    -0.058000000    -6.304000000    -9.980000000
H     0.132000000    -5.768000000    -8.578000000
O    -1.829000000    -1.738000000    -7.144000000
H    -1.129000000    -1.861000000    -6.503000000
H    -2.582000000    -1.456000000    -6.624000000
O     5.805000000    -2.383000000    -3.856000000
H     5.941000000    -2.253000000    -4.795000000
H     4.987000000    -2.877000000    -3.799000000
O     0.873000000     0.418000000    -6.722000000
H     0.287000000    -0.076000000    -6.149000000
H     1.751000000     0.127000000    -6.476000000
O     2.851000000    -5.636000000    -6.325000000
H     1.923000000    -5.444000000    -6.462000000
H     3.229000000    -5.628000000    -7.204000000
O     2.501000000     1.780000000    -1.861000000
H     1.638000000     1.422000000    -1.653000000
H     3.103000000     1.049000000    -1.722000000
O     3.257000000    -0.829000000    -5.493000000
H     2.708000000    -1.595000000    -5.323000000
H     3.563000000    -0.557000000    -4.628000000
O     2.206000000    -0.325000000    -9.994000000
H     1.865000000     0.537000000    -9.757000000
H     1.791000000    -0.926000000    -9.376000000
O     4.242000000     1.506000000    -6.965000000
H     4.063000000     0.655000000    -6.566000000
H     3.724000000     2.125000000    -6.451000000
O    -1.504000000    -6.040000000    -7.088000000
H    -2.374000000    -5.884000000    -6.723000000
H    -0.920000000    -5.500000000    -6.555000000
O     5.955000000    -2.323000000    -6.655000000
H     5.196000000    -1.741000000    -6.620000000
H     6.493000000    -1.973000000    -7.364000000
O     0.102000000    -2.843000000    -9.190000000
H     0.066000000    -2.968000000   -10.138000000
H    -0.212000000    -1.949000000    -9.054000000
O     4.134000000    -0.203000000    -2.534000000
H     4.908000000     0.306000000    -2.292000000
H     4.487000000    -1.013000000    -2.904000000
O     0.396000000    -4.014000000    -6.673000000
H     0.526000000    -3.255000000    -6.103000000
H     0.288000000    -3.641000000    -7.548000000
O     4.841000000    -6.648000000    -4.434000000
H     5.357000000    -5.842000000    -4.415000000
H     4.080000000    -6.433000000    -4.974000000
