215
-1442.24548
C     1.999000000    -4.885000000     0.371000000
H     1.000000000    -5.311000000     0.398000000
C     2.360000000    -3.836000000     1.214000000
C     3.594000000    -3.241000000     1.020000000
H     3.891000000    -2.392000000     1.630000000
C     1.464000000    -3.191000000     2.197000000
O     0.347000000    -4.143000000     2.531000000
H     0.811000000    -2.398000000     1.805000000
O     2.063000000    -2.689000000     3.409000000
C     1.699000000    -1.423000000     3.892000000
C     2.587000000    -0.392000000     3.696000000
H     3.506000000    -0.651000000     3.177000000
C     2.192000000     0.913000000     3.971000000
O     2.922000000     1.940000000     3.505000000
C     0.858000000     1.117000000     4.447000000
C     0.370000000     2.535000000     4.872000000
H    -0.178000000     2.327000000     5.794000000
C    -0.340000000     3.302000000     3.751000000
C    -1.666000000     3.127000000     3.589000000
H    -2.293000000     2.627000000     4.322000000
H     1.245000000     3.040000000     5.287000000
C     0.011000000     0.064000000     4.765000000
H    -1.003000000     0.188000000     5.137000000
C     0.493000000    -1.206000000     4.494000000
C    -0.440000000    -2.433000000     4.881000000
H    -0.974000000    -2.135000000     5.786000000
H     0.145000000    -3.308000000     5.172000000
C    -1.318000000    -2.755000000     3.725000000
C    -2.616000000    -2.241000000     3.703000000
H    -2.927000000    -1.548000000     4.480000000
C    -0.918000000    -3.640000000     2.678000000
C    -1.773000000    -4.020000000     1.697000000
H    -1.378000000    -4.522000000     0.818000000
C    -3.066000000    -3.421000000     1.650000000
O    -3.659000000    -3.539000000     0.456000000
C    -3.559000000    -2.474000000    -0.469000000
C    -3.253000000    -2.936000000    -1.873000000
C    -3.655000000    -2.191000000    -3.026000000
H    -3.977000000    -1.154000000    -2.978000000
C    -2.666000000    -4.141000000    -2.018000000
H    -2.387000000    -4.774000000    -1.180000000
O    -4.718000000    -1.691000000    -0.391000000
H    -2.732000000    -1.835000000    -0.127000000
C    -3.477000000    -2.463000000     2.591000000
C    -4.824000000    -1.726000000     2.505000000
H    -5.274000000    -1.569000000     3.488000000
H    -5.630000000    -2.267000000     2.005000000
C    -4.597000000    -0.479000000     1.647000000
C    -4.245000000     0.717000000     2.287000000
H    -4.398000000     0.802000000     3.360000000
C    -4.634000000    -0.544000000     0.265000000
C    -4.353000000     0.604000000    -0.549000000
H    -4.250000000     0.457000000    -1.621000000
C    -4.043000000     1.785000000     0.077000000
O    -3.615000000     2.888000000    -0.740000000
C    -2.219000000     3.358000000    -0.695000000
C    -1.705000000     3.673000000    -2.076000000
C    -2.080000000     2.856000000    -3.186000000
H    -2.833000000     2.079000000    -3.087000000
C    -0.799000000     4.626000000    -2.265000000
H    -0.596000000     5.348000000    -1.478000000
O    -2.158000000     4.484000000     0.249000000
H    -1.562000000     2.615000000    -0.219000000
C    -3.953000000     1.825000000     1.472000000
C    -3.816000000     3.175000000     2.231000000
H    -4.372000000     3.206000000     3.170000000
H    -4.250000000     3.922000000     1.563000000
C    -2.329000000     3.539000000     2.443000000
C    -1.559000000     4.088000000     1.424000000
C    -0.168000000     4.211000000     1.529000000
H     0.405000000     4.563000000     0.675000000
C     0.393000000     3.851000000     2.730000000
O     1.764000000     3.687000000     2.784000000
C     2.397000000     2.560000000     2.287000000
H     1.678000000     1.937000000     1.735000000
C     3.539000000     2.891000000     1.360000000
C     4.617000000     2.039000000     1.213000000
H     4.630000000     1.131000000     1.809000000
C     3.522000000     4.006000000     0.575000000
H     2.625000000     4.612000000     0.671000000
C     4.577000000     4.411000000    -0.234000000
O     4.459000000     5.446000000    -1.120000000
C     5.661000000     3.529000000    -0.414000000
H     6.513000000     3.800000000    -1.033000000
C     5.686000000     2.355000000     0.253000000
O     6.699000000     1.482000000     0.112000000
C     6.712000000     0.177000000     0.637000000
C     6.222000000    -0.919000000    -0.082000000
H     5.938000000    -0.822000000    -1.127000000
C     7.144000000    -0.018000000     1.927000000
H     7.510000000     0.831000000     2.500000000
C     7.172000000    -1.248000000     2.595000000
H     7.431000000    -1.403000000     3.639000000
C     6.623000000    -2.326000000     1.853000000
H     6.685000000    -3.341000000     2.238000000
C     6.201000000    -2.166000000     0.515000000
O     5.655000000    -3.183000000    -0.243000000
C     4.462000000    -3.784000000     0.057000000
C     4.065000000    -4.828000000    -0.703000000
H     4.644000000    -5.317000000    -1.483000000
C     2.870000000    -5.412000000    -0.572000000
O     2.514000000    -6.371000000    -1.490000000
C     1.211000000    -6.786000000    -1.664000000
C     0.325000000    -6.112000000    -2.556000000
H     0.728000000    -5.271000000    -3.113000000
C     0.718000000    -7.929000000    -1.025000000
H     1.347000000    -8.532000000    -0.374000000
C    -0.606000000    -8.301000000    -1.135000000
H    -0.951000000    -9.200000000    -0.630000000
C    -1.447000000    -7.548000000    -1.896000000
H    -2.474000000    -7.874000000    -2.041000000
C    -1.019000000    -6.412000000    -2.609000000
O    -1.862000000    -5.889000000    -3.500000000
C    -2.407000000    -4.645000000    -3.260000000
C    -2.873000000    -4.006000000    -4.380000000
H    -2.728000000    -4.386000000    -5.387000000
C    -3.495000000    -2.763000000    -4.247000000
O    -3.934000000    -2.039000000    -5.374000000
C    -4.048000000    -0.641000000    -5.426000000
C    -2.894000000     0.083000000    -5.508000000
H    -1.983000000    -0.502000000    -5.603000000
C    -5.274000000     0.057000000    -5.439000000
H    -6.157000000    -0.494000000    -5.125000000
C    -5.322000000     1.426000000    -5.477000000
H    -6.265000000     1.952000000    -5.354000000
C    -4.128000000     2.179000000    -5.649000000
H    -4.171000000     3.265000000    -5.630000000
C    -2.949000000     1.486000000    -5.635000000
O    -1.805000000     2.226000000    -5.541000000
C    -1.468000000     3.032000000    -4.421000000
C    -0.606000000     4.088000000    -4.645000000
H    -0.156000000     4.278000000    -5.616000000
C    -0.316000000     4.885000000    -3.594000000
O     0.450000000     6.027000000    -3.758000000
C     1.413000000     6.433000000    -2.844000000
C     1.074000000     7.654000000    -2.139000000
H     0.177000000     8.194000000    -2.431000000
C     1.870000000     8.013000000    -1.102000000
H     1.580000000     8.852000000    -0.474000000
C     2.951000000     7.208000000    -0.698000000
H     3.641000000     7.441000000     0.110000000
C     3.250000000     6.085000000    -1.459000000
C     2.471000000     5.658000000    -2.530000000
H     2.740000000     4.758000000    -3.077000000
C     2.366000000    -1.150000000    -1.368000000
H     3.434000000    -1.208000000    -1.177000000
C     1.428000000    -0.645000000    -0.452000000
H     1.788000000    -0.440000000     0.553000000
C     0.120000000    -0.488000000    -0.821000000
H    -0.567000000    -0.043000000    -0.065000000
C    -0.314000000    -0.776000000    -2.179000000
H    -1.322000000    -0.567000000    -2.526000000
C     0.607000000    -1.353000000    -3.095000000
H     0.368000000    -1.649000000    -4.113000000
C     1.988000000    -1.444000000    -2.706000000
C     3.113000000    -1.704000000    -3.685000000
O     2.739000000    -2.116000000    -4.758000000
O     4.278000000    -1.485000000    -3.431000000
O     6.162000000     2.910000000    -5.015000000
H     5.913000000     2.223000000    -4.397000000
H     5.329000000     3.259000000    -5.333000000
O     8.511000000    -2.928000000    -1.939000000
H     8.810000000    -3.820000000    -1.766000000
H     7.671000000    -3.039000000    -2.384000000
O     5.039000000    -0.152000000    -6.125000000
H     4.196000000     0.167000000    -6.446000000
H     4.842000000    -0.530000000    -5.268000000
O     3.743000000    -3.204000000    -7.033000000
H     3.144000000    -2.640000000    -7.522000000
H     3.640000000    -2.930000000    -6.122000000
O     1.191000000    -0.848000000    -6.549000000
H     1.449000000     0.068000000    -6.447000000
H     1.696000000    -1.315000000    -5.883000000
O     2.634000000    -6.332000000    -6.433000000
H     2.765000000    -5.527000000    -5.932000000
H     2.481000000    -6.034000000    -7.329000000
O    -0.108000000    -5.530000000    -8.139000000
H     0.752000000    -5.448000000    -8.551000000
H    -0.236000000    -4.698000000    -7.684000000
O     4.751000000    -7.765000000    -5.609000000
H     3.882000000    -7.453000000    -5.860000000
H     5.284000000    -6.972000000    -5.552000000
O     5.909000000    -4.545000000    -7.564000000
H     5.078000000    -4.071000000    -7.567000000
H     6.448000000    -4.078000000    -6.925000000
O    -1.013000000    -2.667000000    -7.127000000
H    -0.585000000    -1.812000000    -7.079000000
H    -1.756000000    -2.530000000    -7.714000000
O     2.670000000     1.597000000    -6.357000000
H     2.278000000     1.525000000    -5.487000000
H     3.394000000     2.213000000    -6.244000000
O     2.166000000     1.116000000    -3.826000000
H     3.005000000     1.172000000    -3.367000000
H     1.700000000     0.406000000    -3.386000000
O     4.992000000     1.080000000    -3.065000000
H     4.942000000     0.127000000    -3.143000000
H     5.486000000     1.229000000    -2.259000000
O     1.287000000    -3.995000000    -5.562000000
H     1.856000000    -3.265000000    -5.318000000
H     0.595000000    -3.594000000    -6.088000000
O     7.650000000    -5.868000000    -3.187000000
H     7.454000000    -6.318000000    -4.009000000
H     6.933000000    -5.243000000    -3.079000000
O     7.111000000     1.432000000    -8.288000000
H     6.503000000     2.167000000    -8.369000000
H     6.735000000     0.885000000    -7.598000000
O     1.295000000    -0.468000000    -9.591000000
H     1.280000000    -0.742000000    -8.674000000
H     1.622000000     0.431000000    -9.567000000
O     6.939000000    -2.921000000    -5.657000000
H     6.180000000    -2.346000000    -5.752000000
H     7.663000000    -2.430000000    -6.045000000
O     5.945000000    -3.749000000    -3.318000000
H     6.365000000    -3.353000000    -4.082000000
H     5.314000000    -3.093000000    -3.024000000
