215
-1470.31676
C     2.211000000    -4.537000000     0.598000000
H     1.186000000    -4.871000000     0.457000000
C     2.631000000    -3.728000000     1.697000000
C     3.896000000    -3.260000000     1.725000000
H     4.289000000    -2.656000000     2.539000000
C     1.513000000    -3.251000000     2.622000000
O     0.442000000    -4.178000000     2.851000000
H     0.915000000    -2.496000000     2.092000000
O     2.000000000    -2.615000000     3.848000000
C     1.544000000    -1.385000000     4.232000000
C     2.350000000    -0.306000000     3.844000000
H     3.337000000    -0.549000000     3.459000000
C     1.881000000     0.999000000     4.014000000
O     2.639000000     2.056000000     3.578000000
C     0.572000000     1.221000000     4.531000000
C     0.053000000     2.629000000     4.728000000
H    -0.622000000     2.650000000     5.586000000
C    -0.673000000     3.165000000     3.511000000
C    -1.981000000     2.952000000     3.346000000
H    -2.468000000     2.346000000     4.105000000
H     0.799000000     3.354000000     5.060000000
C    -0.198000000     0.118000000     4.899000000
H    -1.158000000     0.346000000     5.355000000
C     0.254000000    -1.215000000     4.699000000
C    -0.599000000    -2.406000000     5.027000000
H    -1.317000000    -2.193000000     5.822000000
H     0.009000000    -3.234000000     5.396000000
C    -1.414000000    -2.807000000     3.829000000
C    -2.739000000    -2.335000000     3.664000000
H    -3.187000000    -1.667000000     4.396000000
C    -0.872000000    -3.726000000     2.865000000
C    -1.630000000    -3.969000000     1.720000000
H    -1.227000000    -4.645000000     0.970000000
C    -2.888000000    -3.385000000     1.545000000
O    -3.452000000    -3.677000000     0.343000000
C    -3.252000000    -2.672000000    -0.711000000
C    -2.954000000    -3.213000000    -2.042000000
C    -3.185000000    -2.432000000    -3.139000000
H    -3.520000000    -1.404000000    -3.031000000
C    -2.386000000    -4.491000000    -2.153000000
H    -2.204000000    -5.123000000    -1.288000000
O    -4.427000000    -1.870000000    -0.687000000
H    -2.310000000    -2.176000000    -0.434000000
C    -3.488000000    -2.552000000     2.526000000
C    -4.767000000    -1.806000000     2.268000000
H    -5.230000000    -1.417000000     3.178000000
H    -5.518000000    -2.432000000     1.781000000
C    -4.531000000    -0.630000000     1.362000000
C    -4.443000000     0.641000000     1.951000000
H    -4.432000000     0.776000000     3.030000000
C    -4.419000000    -0.697000000    -0.048000000
C    -4.485000000     0.512000000    -0.763000000
H    -4.463000000     0.506000000    -1.849000000
C    -4.357000000     1.760000000    -0.165000000
O    -3.970000000     2.808000000    -0.916000000
C    -2.554000000     3.228000000    -0.910000000
C    -2.052000000     3.570000000    -2.317000000
C    -2.439000000     2.765000000    -3.420000000
H    -2.996000000     1.850000000    -3.237000000
C    -1.164000000     4.675000000    -2.476000000
H    -0.850000000     5.274000000    -1.626000000
O    -2.392000000     4.345000000    -0.025000000
H    -1.906000000     2.413000000    -0.556000000
C    -4.294000000     1.830000000     1.245000000
C    -4.153000000     3.196000000     1.981000000
H    -4.635000000     3.184000000     2.961000000
H    -4.530000000     4.050000000     1.414000000
C    -2.632000000     3.490000000     2.184000000
C    -1.832000000     4.027000000     1.195000000
C    -0.437000000     4.240000000     1.384000000
H     0.139000000     4.724000000     0.600000000
C     0.120000000     3.798000000     2.544000000
O     1.472000000     3.901000000     2.696000000
C     2.237000000     2.729000000     2.404000000
H     1.596000000     2.156000000     1.717000000
C     3.335000000     3.089000000     1.503000000
C     4.401000000     2.179000000     1.381000000
H     4.284000000     1.287000000     1.991000000
C     3.305000000     4.149000000     0.576000000
H     2.495000000     4.874000000     0.552000000
C     4.387000000     4.330000000    -0.333000000
O     4.446000000     5.337000000    -1.153000000
C     5.423000000     3.470000000    -0.338000000
H     6.217000000     3.554000000    -1.075000000
C     5.426000000     2.389000000     0.528000000
O     6.372000000     1.424000000     0.311000000
C     6.619000000     0.356000000     1.163000000
C     6.216000000    -0.952000000     0.740000000
H     5.731000000    -1.064000000    -0.227000000
C     7.241000000     0.449000000     2.439000000
H     7.550000000     1.398000000     2.868000000
C     7.334000000    -0.652000000     3.236000000
H     7.643000000    -0.510000000     4.269000000
C     7.007000000    -1.931000000     2.738000000
H     7.085000000    -2.833000000     3.340000000
C     6.556000000    -2.062000000     1.461000000
O     6.177000000    -3.278000000     0.991000000
C     4.898000000    -3.691000000     0.794000000
C     4.499000000    -4.475000000    -0.276000000
H     5.305000000    -4.726000000    -0.960000000
C     3.159000000    -4.927000000    -0.333000000
O     2.807000000    -5.638000000    -1.412000000
C     1.652000000    -6.350000000    -1.610000000
C     0.685000000    -5.889000000    -2.461000000
H     0.773000000    -4.906000000    -2.915000000
C     1.386000000    -7.584000000    -0.988000000
H     2.202000000    -7.897000000    -0.342000000
C     0.172000000    -8.321000000    -1.152000000
H     0.025000000    -9.277000000    -0.657000000
C    -0.690000000    -7.834000000    -2.080000000
H    -1.636000000    -8.280000000    -2.375000000
C    -0.438000000    -6.641000000    -2.737000000
O    -1.448000000    -6.144000000    -3.578000000
C    -2.004000000    -4.969000000    -3.429000000
C    -2.424000000    -4.267000000    -4.577000000
H    -2.299000000    -4.809000000    -5.511000000
C    -2.986000000    -2.972000000    -4.443000000
O    -3.247000000    -2.284000000    -5.585000000
C    -3.731000000    -0.965000000    -5.687000000
C    -2.857000000     0.123000000    -5.807000000
H    -1.790000000    -0.041000000    -5.679000000
C    -5.096000000    -0.686000000    -5.721000000
H    -5.647000000    -1.621000000    -5.784000000
C    -5.671000000     0.590000000    -5.831000000
H    -6.746000000     0.733000000    -5.903000000
C    -4.783000000     1.667000000    -5.847000000
H    -5.156000000     2.687000000    -5.804000000
C    -3.391000000     1.437000000    -5.806000000
O    -2.529000000     2.559000000    -5.721000000
C    -2.061000000     3.237000000    -4.665000000
C    -1.226000000     4.354000000    -4.888000000
H    -0.889000000     4.607000000    -5.890000000
C    -0.668000000     5.040000000    -3.759000000
O     0.396000000     5.925000000    -3.938000000
C     1.315000000     6.347000000    -3.003000000
C     1.161000000     7.632000000    -2.470000000
H     0.321000000     8.218000000    -2.836000000
C     2.041000000     8.120000000    -1.519000000
H     1.824000000     9.115000000    -1.140000000
C     3.089000000     7.355000000    -1.011000000
H     3.644000000     7.741000000    -0.159000000
C     3.278000000     6.088000000    -1.507000000
C     2.416000000     5.613000000    -2.542000000
H     2.731000000     4.705000000    -3.049000000
C     2.401000000    -1.163000000    -0.776000000
H     3.485000000    -1.115000000    -0.712000000
C     1.626000000    -0.707000000     0.284000000
H     2.092000000    -0.495000000     1.243000000
C     0.246000000    -0.523000000     0.103000000
H    -0.351000000    -0.132000000     0.914000000
C    -0.324000000    -0.789000000    -1.122000000
H    -1.382000000    -0.559000000    -1.216000000
C     0.370000000    -1.320000000    -2.183000000
H    -0.094000000    -1.475000000    -3.154000000
C     1.798000000    -1.411000000    -2.020000000
C     2.729000000    -1.700000000    -3.210000000
O     2.243000000    -2.048000000    -4.279000000
O     3.876000000    -1.381000000    -3.087000000
O     5.940000000     3.063000000    -4.345000000
H     5.563000000     2.534000000    -3.642000000
H     5.201000000     3.260000000    -4.919000000
O     8.044000000    -3.752000000    -1.065000000
H     8.494000000    -4.336000000    -1.676000000
H     7.467000000    -3.226000000    -1.618000000
O     3.195000000     1.893000000    -5.680000000
H     3.070000000     2.618000000    -6.293000000
H     2.404000000     1.895000000    -5.142000000
O     4.315000000    -0.957000000    -5.638000000
H     3.802000000    -0.228000000    -5.987000000
H     3.788000000    -1.296000000    -4.915000000
O     1.069000000    -0.806000000    -6.367000000
H     1.104000000     0.014000000    -5.875000000
H     1.581000000    -1.422000000    -5.842000000
O     3.111000000    -6.669000000    -4.475000000
H     2.565000000    -5.940000000    -4.770000000
H     3.961000000    -6.271000000    -4.289000000
O    -0.012000000    -5.318000000    -6.735000000
H     0.761000000    -5.172000000    -6.189000000
H    -0.193000000    -4.463000000    -7.127000000
O     3.499000000    -3.210000000    -7.546000000
H     3.641000000    -2.413000000    -7.034000000
H     2.914000000    -2.940000000    -8.253000000
O    -0.453000000    -2.773000000    -7.644000000
H    -0.172000000    -2.089000000    -7.036000000
H    -0.627000000    -2.308000000    -8.463000000
O     8.055000000     1.176000000    -4.477000000
H     8.837000000     1.697000000    -4.293000000
H     7.347000000     1.641000000    -4.032000000
O     0.779000000     1.496000000    -4.384000000
H     0.808000000     1.807000000    -3.480000000
H    -0.127000000     1.638000000    -4.658000000
O     1.415000000     2.089000000    -1.710000000
H     2.106000000     2.638000000    -1.340000000
H     1.489000000     1.260000000    -1.237000000
O     5.172000000     0.891000000    -2.779000000
H     4.576000000     0.184000000    -3.027000000
H     5.691000000     0.526000000    -2.062000000
O     2.196000000    -4.443000000    -5.704000000
H     2.067000000    -3.675000000    -5.148000000
H     2.638000000    -4.103000000    -6.483000000
O     5.426000000    -5.207000000    -3.846000000
H     5.572000000    -5.017000000    -4.773000000
H     5.440000000    -4.349000000    -3.421000000
O     6.215000000     1.441000000    -7.052000000
H     5.355000000     1.300000000    -6.656000000
H     6.832000000     1.350000000    -6.326000000
O     7.030000000    -1.403000000    -5.417000000
H     6.103000000    -1.181000000    -5.326000000
H     7.493000000    -0.611000000    -5.143000000
O     6.315000000    -2.481000000    -2.807000000
H     6.710000000    -2.174000000    -3.623000000
H     5.446000000    -2.079000000    -2.795000000
O     5.964000000    -4.766000000    -6.242000000
H     5.935000000    -5.678000000    -6.532000000
H     5.067000000    -4.452000000    -6.350000000
