215
-1454.74751
C     1.652000000    -4.505000000    -0.068000000
H     0.601000000    -4.721000000     0.104000000
C     2.350000000    -3.807000000     0.930000000
C     3.725000000    -3.534000000     0.690000000
H     4.217000000    -2.884000000     1.409000000
C     1.636000000    -3.126000000     2.066000000
O     0.627000000    -4.014000000     2.682000000
H     1.138000000    -2.251000000     1.624000000
O     2.437000000    -2.804000000     3.220000000
C     2.286000000    -1.600000000     3.780000000
C     3.107000000    -0.590000000     3.275000000
H     3.947000000    -0.685000000     2.592000000
C     2.865000000     0.753000000     3.720000000
O     3.616000000     1.746000000     3.220000000
C     1.770000000     1.034000000     4.532000000
C     1.447000000     2.505000000     4.901000000
H     0.902000000     2.554000000     5.845000000
C     0.549000000     3.140000000     3.837000000
C    -0.853000000     3.184000000     3.967000000
H    -1.355000000     2.735000000     4.820000000
H     2.368000000     3.075000000     5.039000000
C     1.009000000     0.018000000     4.997000000
H     0.171000000     0.209000000     5.663000000
C     1.243000000    -1.271000000     4.654000000
C     0.139000000    -2.323000000     4.999000000
H    -0.423000000    -2.120000000     5.913000000
H     0.728000000    -3.218000000     5.212000000
C    -0.843000000    -2.529000000     3.864000000
C    -2.047000000    -1.847000000     3.985000000
H    -2.217000000    -1.154000000     4.805000000
C    -0.614000000    -3.371000000     2.822000000
C    -1.570000000    -3.516000000     1.811000000
H    -1.424000000    -4.214000000     0.991000000
C    -2.783000000    -2.802000000     1.959000000
O    -3.704000000    -2.805000000     1.015000000
C    -3.714000000    -1.770000000    -0.021000000
C    -3.713000000    -2.351000000    -1.474000000
C    -3.913000000    -1.507000000    -2.580000000
H    -4.108000000    -0.451000000    -2.408000000
C    -3.310000000    -3.660000000    -1.714000000
H    -2.939000000    -4.219000000    -0.859000000
O    -4.905000000    -1.022000000     0.327000000
H    -2.869000000    -1.084000000     0.139000000
C    -3.078000000    -1.992000000     3.074000000
C    -4.377000000    -1.290000000     3.141000000
H    -4.597000000    -0.971000000     4.162000000
H    -5.175000000    -1.916000000     2.735000000
C    -4.286000000     0.080000000     2.392000000
C    -3.805000000     1.209000000     2.998000000
H    -3.497000000     1.236000000     4.040000000
C    -4.627000000     0.154000000     1.041000000
C    -4.455000000     1.274000000     0.303000000
H    -4.726000000     1.251000000    -0.749000000
C    -4.048000000     2.436000000     0.948000000
O    -3.811000000     3.583000000     0.272000000
C    -2.453000000     3.780000000    -0.105000000
C    -2.275000000     3.779000000    -1.625000000
C    -3.324000000     3.570000000    -2.519000000
H    -4.331000000     3.394000000    -2.147000000
C    -1.003000000     4.027000000    -2.128000000
H    -0.141000000     4.094000000    -1.469000000
O    -1.694000000     4.746000000     0.677000000
H    -1.977000000     2.800000000     0.046000000
C    -3.680000000     2.430000000     2.313000000
C    -3.114000000     3.667000000     3.062000000
H    -3.402000000     3.563000000     4.110000000
H    -3.476000000     4.575000000     2.576000000
C    -1.596000000     3.698000000     2.938000000
C    -0.983000000     4.254000000     1.783000000
C     0.397000000     4.213000000     1.700000000
H     0.907000000     4.601000000     0.822000000
C     1.179000000     3.680000000     2.648000000
O     2.487000000     3.647000000     2.357000000
C     3.019000000     2.358000000     2.034000000
H     2.278000000     1.683000000     1.580000000
C     4.098000000     2.505000000     0.944000000
C     5.177000000     1.600000000     0.899000000
H     5.327000000     0.800000000     1.619000000
C     3.886000000     3.406000000    -0.124000000
H     3.053000000     4.104000000    -0.157000000
C     4.797000000     3.402000000    -1.154000000
O     4.687000000     4.390000000    -2.070000000
C     5.924000000     2.552000000    -1.201000000
H     6.679000000     2.617000000    -1.980000000
C     6.020000000     1.605000000    -0.233000000
O     7.126000000     0.836000000    -0.159000000
C     7.121000000    -0.592000000     0.272000000
C     6.353000000    -1.494000000    -0.417000000
H     5.744000000    -1.163000000    -1.254000000
C     7.948000000    -0.938000000     1.309000000
H     8.494000000    -0.156000000     1.830000000
C     8.004000000    -2.301000000     1.688000000
H     8.580000000    -2.606000000     2.557000000
C     7.365000000    -3.268000000     0.882000000
H     7.398000000    -4.316000000     1.170000000
C     6.515000000    -2.804000000    -0.138000000
O     5.726000000    -3.703000000    -0.808000000
C     4.394000000    -3.948000000    -0.484000000
C     3.688000000    -4.704000000    -1.363000000
H     4.163000000    -5.148000000    -2.234000000
C     2.305000000    -4.947000000    -1.224000000
O     1.730000000    -5.789000000    -2.128000000
C     0.429000000    -6.331000000    -1.994000000
C    -0.572000000    -5.554000000    -2.507000000
H    -0.291000000    -4.599000000    -2.944000000
C     0.257000000    -7.677000000    -1.635000000
H     1.154000000    -8.195000000    -1.307000000
C    -1.091000000    -8.170000000    -1.636000000
H    -1.310000000    -9.212000000    -1.415000000
C    -2.096000000    -7.438000000    -2.228000000
H    -2.977000000    -8.004000000    -2.520000000
C    -1.889000000    -6.122000000    -2.630000000
O    -2.926000000    -5.483000000    -3.259000000
C    -3.268000000    -4.170000000    -2.997000000
C    -3.632000000    -3.401000000    -4.041000000
H    -3.649000000    -3.833000000    -5.038000000
C    -4.030000000    -2.079000000    -3.844000000
O    -4.322000000    -1.301000000    -4.975000000
C    -4.981000000    -0.081000000    -4.923000000
C    -4.195000000     1.076000000    -4.884000000
H    -3.115000000     1.062000000    -5.006000000
C    -6.360000000    -0.083000000    -4.674000000
H    -6.900000000    -0.988000000    -4.409000000
C    -6.960000000     1.171000000    -4.436000000
H    -8.026000000     1.196000000    -4.223000000
C    -6.250000000     2.341000000    -4.535000000
H    -6.722000000     3.304000000    -4.361000000
C    -4.867000000     2.241000000    -4.751000000
O    -4.183000000     3.380000000    -4.764000000
C    -3.142000000     3.611000000    -3.910000000
C    -1.880000000     3.839000000    -4.395000000
H    -1.635000000     3.826000000    -5.455000000
C    -0.843000000     4.122000000    -3.521000000
O     0.317000000     4.524000000    -4.054000000
C     1.302000000     5.107000000    -3.364000000
C     1.247000000     6.504000000    -3.160000000
H     0.422000000     7.008000000    -3.657000000
C     2.390000000     7.194000000    -2.673000000
H     2.358000000     8.279000000    -2.606000000
C     3.470000000     6.464000000    -2.189000000
H     4.405000000     6.854000000    -1.795000000
C     3.496000000     5.082000000    -2.397000000
C     2.421000000     4.408000000    -3.002000000
H     2.546000000     3.355000000    -3.240000000
C     1.737000000    -0.576000000    -1.813000000
H     2.811000000    -0.735000000    -1.761000000
C     1.241000000    -0.256000000    -0.510000000
H     1.926000000    -0.332000000     0.331000000
C    -0.086000000     0.065000000    -0.401000000
H    -0.481000000     0.414000000     0.582000000
C    -0.938000000     0.160000000    -1.545000000
H    -1.992000000     0.409000000    -1.444000000
C    -0.398000000    -0.085000000    -2.804000000
H    -1.050000000    -0.268000000    -3.654000000
C     0.971000000    -0.466000000    -2.968000000
C     1.533000000    -0.709000000    -4.341000000
O     0.692000000    -0.840000000    -5.267000000
O     2.717000000    -0.892000000    -4.483000000
O     7.767000000    -1.232000000    -3.605000000
H     8.385000000    -1.308000000    -4.331000000
H     6.953000000    -0.937000000    -4.013000000
O     1.300000000     3.216000000    -7.241000000
H     1.822000000     3.144000000    -8.040000000
H     1.941000000     3.175000000    -6.531000000
O     6.242000000    -0.708000000    -7.764000000
H     6.226000000    -1.623000000    -8.046000000
H     6.764000000    -0.714000000    -6.962000000
O     1.354000000    -5.902000000    -5.036000000
H     1.878000000    -5.142000000    -4.781000000
H     1.332000000    -6.451000000    -4.252000000
O     1.666000000    -0.137000000    -7.600000000
H     2.483000000     0.336000000    -7.443000000
H     1.459000000    -0.543000000    -6.759000000
O     5.380000000    -0.583000000    -4.430000000
H     4.431000000    -0.575000000    -4.551000000
H     5.647000000     0.326000000    -4.570000000
O     2.901000000    -3.637000000    -4.768000000
H     2.560000000    -2.747000000    -4.849000000
H     3.768000000    -3.527000000    -4.377000000
O    -0.884000000    -2.299000000    -7.371000000
H     0.021000000    -2.179000000    -7.657000000
H    -0.876000000    -2.061000000    -6.444000000
O     0.122000000    -0.127000000    -9.793000000
H     0.331000000    -0.026000000    -8.864000000
H     0.475000000     0.662000000   -10.205000000
O     4.951000000     3.460000000    -6.199000000
H     5.715000000     3.629000000    -5.647000000
H     4.749000000     2.536000000    -6.051000000
O    -2.571000000     1.285000000    -8.301000000
H    -1.994000000     1.216000000    -7.540000000
H    -2.430000000     0.470000000    -8.783000000
O     2.423000000    -1.532000000   -10.342000000
H     1.546000000    -1.262000000   -10.070000000
H     2.666000000    -2.217000000    -9.718000000
O    -2.922000000    -3.103000000    -9.168000000
H    -2.527000000    -3.519000000    -9.935000000
H    -2.179000000    -2.877000000    -8.609000000
O    -0.621000000     1.369000000    -6.473000000
H    -0.294000000     0.529000000    -6.151000000
H     0.159000000     1.921000000    -6.538000000
O    -0.683000000    -5.392000000    -7.168000000
H    -0.281000000    -5.475000000    -6.303000000
H    -0.078000000    -4.837000000    -7.660000000
O     4.200000000     1.116000000    -7.346000000
H     4.802000000     1.730000000    -7.765000000
H     4.746000000     0.364000000    -7.117000000
O     2.006000000    -3.494000000    -7.403000000
H     2.243000000    -3.557000000    -6.477000000
H     2.417000000    -4.258000000    -7.808000000
O     6.800000000     1.740000000    -5.051000000
H     7.338000000     2.125000000    -5.743000000
H     7.399000000     1.636000000    -4.312000000
O     5.648000000    -3.719000000    -3.841000000
H     5.660000000    -2.763000000    -3.887000000
H     6.397000000    -3.941000000    -3.288000000
