215
-1449.70635
C     2.159000000    -5.144000000     0.481000000
H     1.442000000    -5.813000000     0.951000000
C     2.407000000    -3.853000000     1.050000000
C     3.478000000    -3.147000000     0.546000000
H     3.795000000    -2.219000000     1.014000000
C     1.646000000    -3.203000000     2.250000000
O     0.762000000    -4.070000000     2.824000000
H     1.065000000    -2.356000000     1.857000000
O     2.479000000    -2.759000000     3.318000000
C     2.246000000    -1.529000000     3.859000000
C     2.972000000    -0.458000000     3.413000000
H     3.847000000    -0.654000000     2.798000000
C     2.615000000     0.885000000     3.646000000
O     3.286000000     1.900000000     3.011000000
C     1.448000000     1.120000000     4.370000000
C     0.895000000     2.483000000     4.715000000
H     0.340000000     2.614000000     5.647000000
C     0.068000000     3.089000000     3.569000000
C    -1.288000000     3.010000000     3.652000000
H    -1.783000000     2.529000000     4.491000000
H     1.728000000     3.139000000     4.976000000
C     0.778000000     0.037000000     4.956000000
H    -0.037000000     0.287000000     5.630000000
C     1.122000000    -1.271000000     4.689000000
C     0.194000000    -2.390000000     5.063000000
H    -0.393000000    -2.125000000     5.944000000
H     0.812000000    -3.260000000     5.297000000
C    -0.805000000    -2.656000000     3.983000000
C    -2.071000000    -1.946000000     4.010000000
H    -2.323000000    -1.252000000     4.808000000
C    -0.493000000    -3.540000000     2.941000000
C    -1.408000000    -3.797000000     1.893000000
H    -1.199000000    -4.522000000     1.110000000
C    -2.695000000    -3.219000000     2.027000000
O    -3.517000000    -3.328000000     0.939000000
C    -3.419000000    -2.307000000    -0.059000000
C    -3.188000000    -2.857000000    -1.418000000
C    -3.252000000    -1.990000000    -2.488000000
H    -3.709000000    -1.004000000    -2.453000000
C    -2.846000000    -4.179000000    -1.569000000
H    -2.923000000    -4.852000000    -0.719000000
O    -4.570000000    -1.465000000     0.095000000
H    -2.562000000    -1.701000000     0.270000000
C    -2.996000000    -2.266000000     3.040000000
C    -4.335000000    -1.640000000     3.091000000
H    -4.651000000    -1.363000000     4.099000000
H    -5.081000000    -2.256000000     2.585000000
C    -4.287000000    -0.416000000     2.228000000
C    -4.082000000     0.865000000     2.813000000
H    -3.916000000     0.897000000     3.887000000
C    -4.441000000    -0.313000000     0.851000000
C    -4.374000000     0.830000000     0.086000000
H    -4.428000000     0.668000000    -0.987000000
C    -4.092000000     2.007000000     0.711000000
O    -3.876000000     3.078000000    -0.088000000
C    -2.518000000     3.419000000    -0.471000000
C    -2.356000000     3.779000000    -1.891000000
C    -3.295000000     3.344000000    -2.821000000
H    -4.205000000     2.820000000    -2.539000000
C    -1.171000000     4.307000000    -2.343000000
H    -0.346000000     4.521000000    -1.669000000
O    -2.107000000     4.480000000     0.424000000
H    -1.861000000     2.581000000    -0.198000000
C    -3.934000000     2.013000000     2.063000000
C    -3.580000000     3.332000000     2.704000000
H    -3.977000000     3.244000000     3.717000000
H    -4.062000000     4.192000000     2.235000000
C    -2.046000000     3.503000000     2.610000000
C    -1.406000000     4.117000000     1.527000000
C    -0.032000000     4.350000000     1.512000000
H     0.464000000     4.895000000     0.714000000
C     0.682000000     3.759000000     2.522000000
O     2.024000000     3.741000000     2.450000000
C     2.702000000     2.630000000     1.871000000
H     1.969000000     2.015000000     1.327000000
C     3.762000000     3.041000000     0.850000000
C     4.741000000     2.151000000     0.549000000
H     4.711000000     1.199000000     1.073000000
C     3.651000000     4.246000000     0.163000000
H     2.783000000     4.874000000     0.349000000
C     4.504000000     4.433000000    -0.896000000
O     4.389000000     5.579000000    -1.725000000
C     5.554000000     3.499000000    -1.166000000
H     6.186000000     3.639000000    -2.039000000
C     5.659000000     2.386000000    -0.419000000
O     6.767000000     1.517000000    -0.650000000
C     6.739000000     0.232000000    -0.262000000
C     5.933000000    -0.658000000    -0.943000000
H     5.480000000    -0.462000000    -1.911000000
C     7.452000000    -0.166000000     0.831000000
H     8.099000000     0.589000000     1.270000000
C     7.441000000    -1.474000000     1.325000000
H     7.918000000    -1.755000000     2.261000000
C     6.631000000    -2.386000000     0.623000000
H     6.434000000    -3.369000000     1.042000000
C     5.906000000    -1.956000000    -0.480000000
O     5.172000000    -2.914000000    -1.139000000
C     4.179000000    -3.627000000    -0.560000000
C     3.914000000    -4.843000000    -1.137000000
H     4.559000000    -5.288000000    -1.890000000
C     2.829000000    -5.576000000    -0.655000000
O     2.435000000    -6.874000000    -1.067000000
C     1.120000000    -7.151000000    -1.161000000
C     0.330000000    -6.360000000    -2.046000000
H     0.885000000    -5.668000000    -2.675000000
C     0.490000000    -8.154000000    -0.380000000
H     1.071000000    -8.637000000     0.401000000
C    -0.876000000    -8.375000000    -0.591000000
H    -1.446000000    -9.084000000     0.004000000
C    -1.614000000    -7.569000000    -1.479000000
H    -2.698000000    -7.588000000    -1.547000000
C    -0.992000000    -6.568000000    -2.193000000
O    -1.789000000    -5.819000000    -3.041000000
C    -2.265000000    -4.549000000    -2.807000000
C    -2.208000000    -3.627000000    -3.845000000
H    -1.854000000    -3.957000000    -4.818000000
C    -2.773000000    -2.330000000    -3.716000000
O    -2.937000000    -1.486000000    -4.859000000
C    -3.874000000    -0.460000000    -4.920000000
C    -3.462000000     0.857000000    -5.006000000
H    -2.383000000     0.989000000    -4.995000000
C    -5.224000000    -0.738000000    -4.954000000
H    -5.378000000    -1.813000000    -4.925000000
C    -6.179000000     0.266000000    -4.972000000
H    -7.204000000    -0.077000000    -4.863000000
C    -5.743000000     1.599000000    -4.928000000
H    -6.425000000     2.443000000    -4.876000000
C    -4.401000000     1.911000000    -4.979000000
O    -4.008000000     3.232000000    -5.072000000
C    -3.155000000     3.710000000    -4.136000000
C    -2.007000000     4.294000000    -4.633000000
H    -1.947000000     4.507000000    -5.697000000
C    -0.954000000     4.554000000    -3.705000000
O     0.281000000     4.810000000    -4.210000000
C     1.148000000     5.697000000    -3.497000000
C     0.756000000     6.916000000    -3.044000000
H    -0.229000000     7.265000000    -3.343000000
C     1.507000000     7.772000000    -2.215000000
H     1.118000000     8.742000000    -1.915000000
C     2.682000000     7.345000000    -1.745000000
H     3.260000000     8.021000000    -1.120000000
C     3.159000000     6.083000000    -2.163000000
C     2.312000000     5.289000000    -2.949000000
H     2.601000000     4.271000000    -3.197000000
C     1.980000000    -0.781000000    -1.822000000
H     2.990000000    -1.181000000    -1.851000000
C     1.450000000    -0.383000000    -0.590000000
H     1.931000000    -0.583000000     0.364000000
C     0.191000000     0.092000000    -0.510000000
H    -0.266000000     0.300000000     0.418000000
C    -0.557000000     0.154000000    -1.694000000
H    -1.570000000     0.539000000    -1.603000000
C    -0.034000000    -0.223000000    -2.908000000
H    -0.629000000    -0.224000000    -3.818000000
C     1.254000000    -0.747000000    -3.005000000
C     1.841000000    -1.168000000    -4.356000000
O     1.325000000    -0.666000000    -5.345000000
O     2.926000000    -1.728000000    -4.484000000
O     7.252000000    -2.723000000    -6.737000000
H     8.109000000    -2.410000000    -6.445000000
H     6.631000000    -2.318000000    -6.131000000
O     6.919000000    -4.165000000    -2.770000000
H     6.468000000    -4.404000000    -3.580000000
H     6.214000000    -3.961000000    -2.155000000
O     2.694000000    -7.268000000    -4.203000000
H     2.738000000    -7.766000000    -3.387000000
H     3.475000000    -6.716000000    -4.190000000
O     3.420000000    -2.937000000    -7.440000000
H     3.107000000    -2.176000000    -7.929000000
H     3.724000000    -2.579000000    -6.607000000
O     5.610000000    -1.767000000    -4.703000000
H     4.659000000    -1.857000000    -4.757000000
H     5.752000000    -0.841000000    -4.503000000
O     3.000000000    -4.411000000    -4.150000000
H     2.991000000    -3.454000000    -4.134000000
H     3.913000000    -4.639000000    -4.323000000
O     4.505000000     1.472000000    -7.837000000
H     4.101000000     1.935000000    -8.572000000
H     3.830000000     0.864000000    -7.537000000
O     0.622000000    -5.159000000    -5.520000000
H     1.441000000    -4.836000000    -5.144000000
H     0.286000000    -5.775000000    -4.869000000
O    -2.589000000    -2.964000000    -7.971000000
H    -1.881000000    -2.404000000    -7.655000000
H    -3.026000000    -2.441000000    -8.644000000
O     2.367000000    -0.263000000    -7.685000000
H     1.615000000    -0.015000000    -8.222000000
H     2.017000000    -0.325000000    -6.796000000
O     1.035000000    -5.092000000    -8.763000000
H     1.782000000    -4.834000000    -8.223000000
H     0.805000000    -5.967000000    -8.450000000
O    -0.192000000    -2.509000000    -6.735000000
H     0.161000000    -3.393000000    -6.633000000
H     0.472000000    -1.940000000    -6.345000000
O     3.878000000     3.038000000    -4.999000000
H     4.272000000     2.432000000    -5.626000000
H     2.951000000     2.801000000    -4.985000000
O     1.394000000     4.135000000    -7.679000000
H     2.116000000     3.738000000    -8.167000000
H     0.715000000     3.460000000    -7.665000000
O     3.226000000    -5.781000000    -7.000000000
H     3.120000000    -5.879000000    -6.054000000
H     3.522000000    -4.879000000    -7.116000000
O     5.765000000     0.904000000    -4.078000000
H     5.105000000     1.419000000    -3.613000000
H     6.576000000     1.402000000    -3.973000000
O    -0.739000000     2.364000000    -7.673000000
H    -0.628000000     1.696000000    -8.349000000
H    -0.484000000     1.928000000    -6.860000000
O     5.369000000    -5.895000000    -4.550000000
H     5.637000000    -5.753000000    -5.457000000
H     5.983000000    -6.550000000    -4.218000000
O     1.422000000     1.901000000    -5.179000000
H     0.742000000     2.149000000    -4.552000000
H     1.346000000     0.949000000    -5.249000000
