215
-1466.13380
C     1.773000000    -4.848000000     1.372000000
H     0.763000000    -5.087000000     1.695000000
C     2.342000000    -3.692000000     1.931000000
C     3.710000000    -3.369000000     1.669000000
H     4.026000000    -2.376000000     1.980000000
C     1.542000000    -2.806000000     2.819000000
O     0.522000000    -3.507000000     3.569000000
H     1.050000000    -2.130000000     2.104000000
O     2.269000000    -1.957000000     3.772000000
C     1.901000000    -0.646000000     4.013000000
C     2.741000000     0.270000000     3.504000000
H     3.766000000     0.036000000     3.228000000
C     2.328000000     1.589000000     3.459000000
O     3.104000000     2.464000000     2.784000000
C     1.207000000     2.027000000     4.118000000
C     0.827000000     3.476000000     4.234000000
H     0.145000000     3.591000000     5.079000000
C     0.073000000     3.919000000     3.007000000
C    -1.349000000     3.833000000     2.933000000
H    -1.941000000     3.461000000     3.765000000
H     1.649000000     4.135000000     4.523000000
C     0.448000000     1.052000000     4.786000000
H    -0.334000000     1.392000000     5.460000000
C     0.755000000    -0.276000000     4.672000000
C    -0.136000000    -1.267000000     5.390000000
H    -0.636000000    -0.771000000     6.225000000
H     0.501000000    -1.982000000     5.914000000
C    -1.119000000    -1.897000000     4.382000000
C    -2.381000000    -1.315000000     4.270000000
H    -2.588000000    -0.388000000     4.800000000
C    -0.748000000    -2.959000000     3.531000000
C    -1.641000000    -3.488000000     2.593000000
H    -1.409000000    -4.472000000     2.191000000
C    -2.866000000    -2.841000000     2.426000000
O    -3.691000000    -3.176000000     1.371000000
C    -3.492000000    -2.298000000     0.199000000
C    -3.327000000    -3.126000000    -1.119000000
C    -3.753000000    -2.569000000    -2.304000000
H    -4.136000000    -1.563000000    -2.452000000
C    -2.697000000    -4.349000000    -1.021000000
H    -2.436000000    -4.844000000    -0.090000000
O    -4.664000000    -1.458000000     0.217000000
H    -2.609000000    -1.692000000     0.447000000
C    -3.218000000    -1.721000000     3.212000000
C    -4.514000000    -0.962000000     3.015000000
H    -4.734000000    -0.464000000     3.961000000
H    -5.373000000    -1.604000000     2.807000000
C    -4.355000000     0.131000000     1.952000000
C    -4.068000000     1.437000000     2.329000000
H    -3.871000000     1.588000000     3.387000000
C    -4.516000000    -0.167000000     0.579000000
C    -4.273000000     0.813000000    -0.336000000
H    -4.268000000     0.472000000    -1.368000000
C    -3.996000000     2.072000000     0.031000000
O    -3.709000000     3.013000000    -0.895000000
C    -2.298000000     3.334000000    -1.226000000
C    -2.007000000     3.547000000    -2.762000000
C    -2.728000000     2.828000000    -3.700000000
H    -3.441000000     2.094000000    -3.333000000
C    -0.892000000     4.323000000    -3.223000000
H    -0.279000000     4.843000000    -2.491000000
O    -2.020000000     4.626000000    -0.571000000
H    -1.757000000     2.426000000    -0.920000000
C    -3.851000000     2.422000000     1.384000000
C    -3.512000000     3.821000000     1.798000000
H    -3.904000000     4.067000000     2.787000000
H    -4.171000000     4.491000000     1.242000000
C    -2.011000000     4.133000000     1.782000000
C    -1.370000000     4.519000000     0.614000000
C     0.000000000     4.644000000     0.655000000
H     0.602000000     4.991000000    -0.181000000
C     0.757000000     4.318000000     1.821000000
O     2.123000000     4.346000000     1.697000000
C     2.609000000     2.966000000     1.579000000
H     1.806000000     2.329000000     1.177000000
C     3.661000000     2.814000000     0.512000000
C     4.703000000     1.933000000     0.638000000
H     4.907000000     1.499000000     1.613000000
C     3.523000000     3.519000000    -0.694000000
H     2.730000000     4.250000000    -0.825000000
C     4.375000000     3.286000000    -1.774000000
O     4.144000000     3.916000000    -2.968000000
C     5.428000000     2.353000000    -1.628000000
H     6.152000000     2.212000000    -2.426000000
C     5.588000000     1.705000000    -0.466000000
O     6.651000000     0.803000000    -0.356000000
C     6.614000000    -0.305000000     0.465000000
C     6.226000000    -1.566000000     0.072000000
H     5.783000000    -1.604000000    -0.919000000
C     7.232000000    -0.113000000     1.690000000
H     7.577000000     0.845000000     2.071000000
C     7.234000000    -1.151000000     2.585000000
H     7.601000000    -0.911000000     3.579000000
C     6.695000000    -2.383000000     2.262000000
H     6.813000000    -3.142000000     3.032000000
C     6.302000000    -2.620000000     0.935000000
O     5.834000000    -3.806000000     0.563000000
C     4.467000000    -4.203000000     0.866000000
C     3.940000000    -5.421000000     0.438000000
H     4.621000000    -6.105000000    -0.062000000
C     2.622000000    -5.737000000     0.619000000
O     2.116000000    -7.020000000     0.204000000
C     0.752000000    -7.238000000    -0.014000000
C     0.193000000    -6.540000000    -1.044000000
H     0.798000000    -5.943000000    -1.721000000
C     0.055000000    -8.113000000     0.861000000
H     0.447000000    -8.388000000     1.836000000
C    -1.275000000    -8.349000000     0.576000000
H    -1.961000000    -8.897000000     1.218000000
C    -1.843000000    -7.673000000    -0.463000000
H    -2.839000000    -8.018000000    -0.729000000
C    -1.171000000    -6.753000000    -1.227000000
O    -1.770000000    -6.193000000    -2.333000000
C    -2.482000000    -5.045000000    -2.223000000
C    -2.720000000    -4.388000000    -3.476000000
H    -2.327000000    -4.837000000    -4.385000000
C    -3.411000000    -3.194000000    -3.527000000
O    -3.651000000    -2.542000000    -4.753000000
C    -4.129000000    -1.249000000    -5.001000000
C    -3.336000000    -0.101000000    -5.302000000
H    -2.260000000    -0.247000000    -5.265000000
C    -5.500000000    -1.159000000    -5.097000000
H    -6.176000000    -1.989000000    -4.909000000
C    -6.070000000    -0.039000000    -5.582000000
H    -7.142000000     0.131000000    -5.633000000
C    -5.328000000     1.073000000    -5.851000000
H    -5.843000000     2.002000000    -6.080000000
C    -3.944000000     1.091000000    -5.691000000
O    -3.230000000     2.259000000    -6.036000000
C    -2.504000000     2.995000000    -5.062000000
C    -1.516000000     3.855000000    -5.504000000
H    -1.437000000     4.200000000    -6.532000000
C    -0.677000000     4.563000000    -4.573000000
O     0.220000000     5.565000000    -5.029000000
C     1.363000000     5.810000000    -4.290000000
C     1.805000000     7.141000000    -4.064000000
H     1.386000000     8.018000000    -4.550000000
C     2.933000000     7.311000000    -3.298000000
H     3.324000000     8.280000000    -2.994000000
C     3.684000000     6.180000000    -2.874000000
H     4.663000000     6.299000000    -2.417000000
C     3.306000000     4.936000000    -3.286000000
C     2.068000000     4.695000000    -3.840000000
H     1.714000000     3.691000000    -4.058000000
C     2.063000000    -1.423000000    -0.923000000
H     3.087000000    -1.641000000    -0.631000000
C     1.365000000    -0.550000000    -0.090000000
H     1.837000000    -0.071000000     0.764000000
C     0.034000000    -0.249000000    -0.329000000
H    -0.590000000     0.457000000     0.275000000
C    -0.585000000    -0.890000000    -1.379000000
H    -1.617000000    -0.641000000    -1.616000000
C     0.099000000    -1.722000000    -2.308000000
H    -0.408000000    -2.165000000    -3.161000000
C     1.454000000    -1.964000000    -2.095000000
C     2.229000000    -2.963000000    -2.923000000
O     1.893000000    -3.119000000    -4.106000000
O     3.377000000    -3.294000000    -2.591000000
O     8.289000000    -5.540000000    -4.409000000
H     7.498000000    -5.140000000    -4.770000000
H     8.009000000    -6.410000000    -4.125000000
O     6.908000000    -0.500000000    -4.417000000
H     6.886000000    -0.774000000    -3.500000000
H     5.988000000    -0.395000000    -4.658000000
O     5.871000000    -6.994000000    -2.050000000
H     5.788000000    -7.943000000    -2.148000000
H     6.645000000    -6.878000000    -1.499000000
O     3.996000000    -4.326000000    -5.532000000
H     4.902000000    -4.263000000    -5.229000000
H     3.482000000    -3.916000000    -4.837000000
O     4.303000000    -0.074000000    -3.315000000
H     4.167000000    -0.897000000    -2.846000000
H     3.562000000     0.474000000    -3.057000000
O     5.839000000    -3.681000000    -3.219000000
H     4.947000000    -3.529000000    -2.907000000
H     6.139000000    -4.443000000    -2.723000000
O     1.544000000    -6.225000000    -5.256000000
H     1.970000000    -5.369000000    -5.208000000
H     1.735000000    -6.635000000    -4.412000000
O     2.203000000    -0.226000000    -8.081000000
H     2.263000000    -1.100000000    -8.465000000
H     2.190000000     0.366000000    -8.833000000
O     2.960000000    -3.940000000    -8.267000000
H     3.522000000    -4.115000000    -7.513000000
H     2.092000000    -3.793000000    -7.890000000
O     0.933000000    -8.114000000    -7.171000000
H     0.095000000    -8.180000000    -6.713000000
H     1.402000000    -7.416000000    -6.714000000
O    -0.304000000    -3.826000000    -5.452000000
H     0.017000000    -4.695000000    -5.692000000
H     0.381000000    -3.464000000    -4.890000000
O     5.356000000    -6.848000000    -5.900000000
H     6.141000000    -6.631000000    -6.403000000
H     4.904000000    -6.012000000    -5.789000000
O    -1.583000000    -7.459000000    -5.432000000
H    -1.132000000    -7.141000000    -4.649000000
H    -2.326000000    -7.959000000    -5.094000000
O     2.833000000    -9.163000000    -2.891000000
H     3.217000000    -9.229000000    -3.765000000
H     2.784000000    -8.223000000    -2.720000000
O     3.373000000    -6.267000000    -2.765000000
H     4.292000000    -6.482000000    -2.603000000
H     3.298000000    -5.343000000    -2.530000000
O     1.643000000     1.160000000    -2.952000000
H     1.623000000     0.977000000    -3.891000000
H     0.905000000     0.666000000    -2.595000000
O     0.165000000    -3.335000000    -8.018000000
H     0.100000000    -3.378000000    -7.064000000
H    -0.740000000    -3.407000000    -8.323000000
O     6.752000000    -3.666000000    -5.852000000
H     6.489000000    -2.993000000    -6.480000000
H     6.661000000    -3.246000000    -4.997000000
O     1.803000000    -0.598000000    -5.266000000
H     2.075000000    -0.673000000    -6.180000000
H     1.999000000    -1.455000000    -4.887000000
