215
-1420.13598
C     3.198000000    -3.430000000     2.810000000
H     2.349000000    -3.863000000     3.333000000
C     3.239000000    -2.049000000     2.686000000
C     4.284000000    -1.433000000     1.986000000
H     4.329000000    -0.348000000     1.931000000
C     2.235000000    -1.230000000     3.472000000
O     1.601000000    -2.023000000     4.487000000
H     1.486000000    -0.845000000     2.765000000
O     2.775000000    -0.058000000     4.098000000
C     2.044000000     1.127000000     3.850000000
C     2.498000000     2.007000000     2.866000000
H     3.449000000     1.855000000     2.361000000
C     1.788000000     3.162000000     2.593000000
O     2.255000000     3.972000000     1.620000000
C     0.583000000     3.385000000     3.272000000
C    -0.188000000     4.608000000     3.003000000
H    -0.826000000     4.793000000     3.869000000
C    -1.143000000     4.393000000     1.775000000
C    -2.430000000     3.907000000     1.937000000
H    -2.722000000     3.753000000     2.973000000
H     0.445000000     5.492000000     2.901000000
C     0.017000000     2.497000000     4.161000000
H    -0.985000000     2.589000000     4.574000000
C     0.720000000     1.363000000     4.423000000
C     0.243000000     0.366000000     5.517000000
H    -0.380000000     1.017000000     6.134000000
H     1.008000000     0.138000000     6.262000000
C    -0.548000000    -0.836000000     5.006000000
C    -1.902000000    -0.771000000     4.739000000
H    -2.402000000     0.150000000     5.027000000
C     0.197000000    -1.970000000     4.527000000
C    -0.383000000    -2.937000000     3.757000000
H     0.086000000    -3.704000000     3.146000000
C    -1.755000000    -2.880000000     3.601000000
O    -2.231000000    -3.698000000     2.670000000
C    -2.468000000    -3.154000000     1.380000000
C    -2.019000000    -4.014000000     0.226000000
C    -2.503000000    -3.805000000    -1.093000000
H    -3.101000000    -2.925000000    -1.319000000
C    -0.964000000    -4.952000000     0.390000000
H    -0.370000000    -4.955000000     1.300000000
O    -3.785000000    -2.822000000     1.091000000
H    -1.824000000    -2.263000000     1.380000000
C    -2.548000000    -1.818000000     4.112000000
C    -4.055000000    -1.655000000     3.755000000
H    -4.534000000    -1.188000000     4.618000000
H    -4.525000000    -2.630000000     3.608000000
C    -4.178000000    -0.856000000     2.415000000
C    -4.287000000     0.555000000     2.357000000
H    -4.271000000     1.109000000     3.293000000
C    -4.067000000    -1.480000000     1.181000000
C    -4.427000000    -0.693000000     0.012000000
H    -4.322000000    -1.312000000    -0.876000000
C    -4.525000000     0.629000000     0.057000000
O    -4.537000000     1.319000000    -1.192000000
C    -3.374000000     1.913000000    -1.750000000
C    -3.339000000     1.758000000    -3.285000000
C    -4.109000000     0.751000000    -3.890000000
H    -4.758000000     0.025000000    -3.407000000
C    -2.487000000     2.574000000    -4.026000000
H    -1.864000000     3.323000000    -3.545000000
O    -3.435000000     3.295000000    -1.501000000
H    -2.402000000     1.540000000    -1.394000000
C    -4.379000000     1.331000000     1.198000000
C    -4.464000000     2.832000000     1.223000000
H    -4.804000000     3.248000000     2.173000000
H    -5.311000000     3.143000000     0.608000000
C    -3.230000000     3.578000000     0.890000000
C    -2.718000000     3.644000000    -0.400000000
C    -1.524000000     4.275000000    -0.632000000
H    -1.213000000     4.238000000    -1.673000000
C    -0.672000000     4.602000000     0.445000000
O     0.614000000     4.960000000     0.182000000
C     1.576000000     3.900000000     0.343000000
H     1.106000000     2.919000000     0.182000000
C     2.652000000     3.891000000    -0.806000000
C     3.940000000     3.304000000    -0.698000000
H     4.272000000     2.845000000     0.230000000
C     2.305000000     4.353000000    -2.154000000
H     1.352000000     4.837000000    -2.350000000
C     3.179000000     4.216000000    -3.223000000
O     2.851000000     4.583000000    -4.491000000
C     4.482000000     3.710000000    -2.990000000
H     5.187000000     3.554000000    -3.803000000
C     4.855000000     3.197000000    -1.741000000
O     6.155000000     2.666000000    -1.608000000
C     6.591000000     1.833000000    -0.667000000
C     6.172000000     0.483000000    -0.640000000
H     5.616000000     0.077000000    -1.482000000
C     7.489000000     2.223000000     0.296000000
H     7.789000000     3.265000000     0.229000000
C     8.058000000     1.391000000     1.261000000
H     8.775000000     1.796000000     1.970000000
C     7.478000000     0.157000000     1.392000000
H     7.816000000    -0.517000000     2.175000000
C     6.477000000    -0.327000000     0.502000000
O     6.128000000    -1.674000000     0.515000000
C     5.243000000    -2.241000000     1.353000000
C     5.329000000    -3.594000000     1.625000000
H     6.040000000    -4.197000000     1.067000000
C     4.254000000    -4.196000000     2.241000000
O     4.288000000    -5.576000000     2.386000000
C     3.277000000    -6.321000000     2.031000000
C     2.560000000    -5.919000000     0.917000000
H     2.874000000    -5.133000000     0.236000000
C     2.871000000    -7.346000000     2.899000000
H     3.487000000    -7.553000000     3.770000000
C     1.603000000    -7.907000000     2.670000000
H     1.241000000    -8.701000000     3.319000000
C     0.892000000    -7.520000000     1.512000000
H    -0.018000000    -8.062000000     1.265000000
C     1.416000000    -6.587000000     0.569000000
O     0.699000000    -6.437000000    -0.634000000
C    -0.394000000    -5.652000000    -0.703000000
C    -0.962000000    -5.423000000    -1.936000000
H    -0.509000000    -5.889000000    -2.807000000
C    -1.975000000    -4.510000000    -2.156000000
O    -2.257000000    -4.107000000    -3.450000000
C    -3.430000000    -3.421000000    -3.881000000
C    -3.349000000    -2.336000000    -4.747000000
H    -2.445000000    -1.803000000    -5.027000000
C    -4.682000000    -3.937000000    -3.432000000
H    -4.683000000    -4.777000000    -2.742000000
C    -5.875000000    -3.298000000    -3.811000000
H    -6.813000000    -3.534000000    -3.317000000
C    -5.800000000    -2.161000000    -4.657000000
H    -6.715000000    -1.616000000    -4.873000000
C    -4.519000000    -1.757000000    -5.165000000
O    -4.520000000    -0.551000000    -5.798000000
C    -3.953000000     0.606000000    -5.303000000
C    -3.053000000     1.372000000    -6.099000000
H    -2.946000000     1.190000000    -7.165000000
C    -2.328000000     2.397000000    -5.418000000
O    -1.412000000     3.160000000    -6.217000000
C    -0.563000000     4.173000000    -5.735000000
C    -0.945000000     5.497000000    -5.806000000
H    -1.979000000     5.626000000    -6.114000000
C    -0.185000000     6.557000000    -5.296000000
H    -0.418000000     7.618000000    -5.331000000
C     1.157000000     6.178000000    -4.911000000
H     1.851000000     6.929000000    -4.543000000
C     1.584000000     4.858000000    -4.899000000
C     0.705000000     3.850000000    -5.216000000
H     0.866000000     2.775000000    -5.187000000
C     2.222000000    -0.139000000    -1.134000000
H     3.260000000     0.166000000    -1.241000000
C     1.468000000     0.177000000     0.047000000
H     1.944000000     0.653000000     0.900000000
C     0.128000000    -0.162000000     0.121000000
H    -0.586000000     0.219000000     0.934000000
C    -0.508000000    -0.711000000    -0.924000000
H    -1.594000000    -0.744000000    -0.973000000
C     0.253000000    -1.085000000    -2.059000000
H    -0.223000000    -1.487000000    -2.950000000
C     1.554000000    -0.873000000    -2.188000000
C     2.374000000    -1.417000000    -3.359000000
O     1.841000000    -2.128000000    -4.201000000
O     3.509000000    -1.019000000    -3.472000000
O     5.956000000    -4.166000000    -4.795000000
H     5.696000000    -4.870000000    -4.202000000
H     6.821000000    -4.426000000    -5.110000000
O    -0.506000000    -5.832000000    -6.877000000
H    -0.447000000    -5.019000000    -6.375000000
H    -0.640000000    -6.512000000    -6.217000000
O     8.605000000    -1.560000000    -2.589000000
H     8.881000000    -0.644000000    -2.625000000
H     7.650000000    -1.521000000    -2.529000000
O     5.998000000    -1.932000000    -2.991000000
H     5.131000000    -1.527000000    -3.006000000
H     5.938000000    -2.651000000    -3.620000000
O     4.403000000    -2.179000000    -5.829000000
H     4.215000000    -1.741000000    -4.999000000
H     4.831000000    -2.998000000    -5.576000000
O     1.762000000    -7.485000000    -4.306000000
H     1.793000000    -6.637000000    -3.865000000
H     0.832000000    -7.632000000    -4.479000000
O     2.634000000    -5.664000000    -7.280000000
H     1.679000000    -5.621000000    -7.321000000
H     2.880000000    -6.223000000    -8.017000000
O     4.216000000    -5.298000000    -2.259000000
H     3.884000000    -6.105000000    -1.866000000
H     3.470000000    -4.941000000    -2.740000000
O     1.869000000    -0.514000000    -6.441000000
H     1.965000000    -1.150000000    -7.150000000
H     1.778000000    -1.048000000    -5.651000000
O     0.764000000     1.092000000    -8.851000000
H     0.696000000     2.047000000    -8.858000000
H     0.813000000     0.862000000    -7.924000000
O    -0.261000000    -3.294000000    -5.309000000
H    -0.867000000    -3.689000000    -4.683000000
H     0.496000000    -3.038000000    -4.781000000
O     2.862000000    -2.918000000    -7.935000000
H     2.897000000    -3.873000000    -7.875000000
H     3.442000000    -2.613000000    -7.238000000
O     3.930000000     1.450000000    -6.829000000
H     4.425000000     1.413000000    -6.010000000
H     3.165000000     0.896000000    -6.671000000
O    -1.272000000    -2.923000000    -7.713000000
H    -0.853000000    -2.819000000    -6.859000000
H    -2.004000000    -3.517000000    -7.550000000
O     2.390000000    -4.712000000    -4.262000000
H     2.697000000    -4.786000000    -5.165000000
H     2.312000000    -3.770000000    -4.112000000
O     6.234000000     3.595000000    -6.095000000
H     5.811000000     4.217000000    -6.686000000
H     5.512000000     3.200000000    -5.606000000
O     5.947000000    -1.097000000    -8.043000000
H     5.375000000    -1.218000000    -7.285000000
H     6.830000000    -1.243000000    -7.702000000
O     7.738000000    -3.556000000    -0.966000000
H     7.245000000    -3.059000000    -0.314000000
H     7.921000000    -2.925000000    -1.662000000
O     5.165000000     0.973000000    -4.410000000
H     4.420000000     0.506000000    -4.032000000
H     5.916000000     0.404000000    -4.238000000
