215
-1454.15369
C     2.661000000    -3.773000000     1.871000000
H     1.667000000    -4.080000000     2.186000000
C     3.003000000    -2.542000000     2.381000000
C     4.179000000    -2.007000000     1.919000000
H     4.465000000    -0.963000000     2.016000000
C     2.058000000    -1.796000000     3.308000000
O     1.238000000    -2.711000000     4.015000000
H     1.488000000    -1.130000000     2.643000000
O     2.710000000    -0.872000000     4.196000000
C     2.122000000     0.375000000     4.289000000
C     2.772000000     1.399000000     3.619000000
H     3.649000000     1.170000000     3.018000000
C     2.095000000     2.604000000     3.354000000
O     2.739000000     3.533000000     2.542000000
C     0.791000000     2.852000000     3.984000000
C     0.077000000     4.156000000     3.778000000
H    -0.587000000     4.177000000     4.644000000
C    -0.768000000     4.221000000     2.541000000
C    -2.127000000     3.782000000     2.547000000
H    -2.618000000     3.694000000     3.512000000
H     0.714000000     5.043000000     3.786000000
C     0.244000000     1.796000000     4.724000000
H    -0.726000000     2.011000000     5.165000000
C     0.856000000     0.532000000     4.858000000
C     0.104000000    -0.496000000     5.615000000
H    -0.599000000    -0.042000000     6.317000000
H     0.832000000    -1.142000000     6.110000000
C    -0.690000000    -1.348000000     4.637000000
C    -2.030000000    -1.124000000     4.451000000
H    -2.509000000    -0.237000000     4.857000000
C    -0.127000000    -2.449000000     3.913000000
C    -0.889000000    -3.201000000     3.007000000
H    -0.451000000    -3.983000000     2.393000000
C    -2.244000000    -2.918000000     2.835000000
O    -2.836000000    -3.612000000     1.761000000
C    -3.056000000    -2.876000000     0.530000000
C    -2.834000000    -3.766000000    -0.621000000
C    -3.183000000    -3.442000000    -1.928000000
H    -3.720000000    -2.502000000    -2.029000000
C    -2.004000000    -4.876000000    -0.482000000
H    -1.497000000    -5.161000000     0.436000000
O    -4.302000000    -2.278000000     0.453000000
H    -2.313000000    -2.066000000     0.483000000
C    -2.845000000    -1.842000000     3.537000000
C    -4.269000000    -1.419000000     3.262000000
H    -4.701000000    -0.873000000     4.104000000
H    -4.867000000    -2.328000000     3.174000000
C    -4.379000000    -0.516000000     2.022000000
C    -4.382000000     0.858000000     2.216000000
H    -4.435000000     1.238000000     3.233000000
C    -4.395000000    -0.937000000     0.683000000
C    -4.573000000    -0.056000000    -0.371000000
H    -4.726000000    -0.436000000    -1.378000000
C    -4.534000000     1.293000000    -0.150000000
O    -4.230000000     2.102000000    -1.201000000
C    -2.858000000     2.389000000    -1.467000000
C    -2.574000000     2.254000000    -2.914000000
C    -3.440000000     1.565000000    -3.747000000
H    -4.332000000     1.039000000    -3.417000000
C    -1.266000000     2.551000000    -3.316000000
H    -0.524000000     2.892000000    -2.599000000
O    -2.731000000     3.753000000    -1.085000000
H    -2.207000000     1.801000000    -0.804000000
C    -4.438000000     1.769000000     1.162000000
C    -4.325000000     3.264000000     1.413000000
H    -4.803000000     3.504000000     2.365000000
H    -4.798000000     3.869000000     0.637000000
C    -2.827000000     3.696000000     1.378000000
C    -2.135000000     3.987000000     0.167000000
C    -0.819000000     4.488000000     0.086000000
H    -0.369000000     4.613000000    -0.895000000
C    -0.103000000     4.524000000     1.298000000
O     1.244000000     4.884000000     1.314000000
C     2.147000000     3.788000000     1.242000000
H     1.573000000     2.866000000     1.068000000
C     3.201000000     3.858000000     0.166000000
C     4.448000000     3.233000000     0.349000000
H     4.507000000     2.695000000     1.292000000
C     2.936000000     4.483000000    -1.005000000
H     1.983000000     4.934000000    -1.269000000
C     3.849000000     4.462000000    -2.041000000
O     3.621000000     5.272000000    -3.131000000
C     5.099000000     3.828000000    -1.912000000
H     5.892000000     3.895000000    -2.653000000
C     5.376000000     3.203000000    -0.690000000
O     6.587000000     2.562000000    -0.476000000
C     6.794000000     1.507000000     0.363000000
C     6.357000000     0.201000000     0.043000000
H     5.902000000     0.026000000    -0.929000000
C     7.316000000     1.835000000     1.607000000
H     7.559000000     2.876000000     1.802000000
C     7.553000000     0.823000000     2.520000000
H     8.075000000     1.076000000     3.439000000
C     7.225000000    -0.507000000     2.173000000
H     7.263000000    -1.263000000     2.952000000
C     6.674000000    -0.861000000     0.954000000
O     6.211000000    -2.131000000     0.616000000
C     5.093000000    -2.696000000     1.172000000
C     4.781000000    -3.952000000     0.800000000
H     5.480000000    -4.524000000     0.196000000
C     3.532000000    -4.466000000     1.104000000
O     3.305000000    -5.739000000     0.656000000
C     2.076000000    -6.339000000     0.672000000
C     1.272000000    -6.081000000    -0.436000000
H     1.647000000    -5.476000000    -1.258000000
C     1.710000000    -7.166000000     1.730000000
H     2.451000000    -7.353000000     2.503000000
C     0.389000000    -7.765000000     1.780000000
H     0.036000000    -8.459000000     2.538000000
C    -0.390000000    -7.545000000     0.629000000
H    -1.338000000    -8.042000000     0.437000000
C     0.055000000    -6.819000000    -0.422000000
O    -0.814000000    -6.750000000    -1.494000000
C    -1.671000000    -5.678000000    -1.560000000
C    -2.108000000    -5.343000000    -2.850000000
H    -1.687000000    -5.824000000    -3.730000000
C    -2.904000000    -4.220000000    -3.064000000
O    -3.213000000    -3.810000000    -4.361000000
C    -4.115000000    -2.824000000    -4.611000000
C    -3.609000000    -1.516000000    -4.857000000
H    -2.528000000    -1.413000000    -4.884000000
C    -5.492000000    -3.095000000    -4.609000000
H    -5.827000000    -4.070000000    -4.263000000
C    -6.400000000    -2.166000000    -4.988000000
H    -7.473000000    -2.337000000    -4.994000000
C    -5.869000000    -0.895000000    -5.337000000
H    -6.559000000    -0.128000000    -5.680000000
C    -4.497000000    -0.573000000    -5.327000000
O    -3.922000000     0.549000000    -5.816000000
C    -3.080000000     1.372000000    -5.099000000
C    -1.852000000     1.841000000    -5.584000000
H    -1.616000000     1.772000000    -6.643000000
C    -1.009000000     2.482000000    -4.686000000
O     0.230000000     2.669000000    -5.214000000
C     0.915000000     3.805000000    -5.059000000
C     0.650000000     4.828000000    -5.947000000
H    -0.131000000     4.694000000    -6.691000000
C     1.235000000     6.066000000    -5.785000000
H     1.049000000     6.818000000    -6.547000000
C     2.230000000     6.235000000    -4.861000000
H     2.847000000     7.130000000    -4.870000000
C     2.519000000     5.154000000    -3.995000000
C     1.815000000     3.984000000    -4.091000000
H     1.978000000     3.152000000    -3.410000000
C     2.460000000     0.292000000    -0.883000000
H     3.537000000     0.288000000    -0.736000000
C     1.572000000     0.399000000     0.217000000
H     1.975000000     0.482000000     1.224000000
C     0.178000000     0.355000000     0.014000000
H    -0.473000000     0.451000000     0.831000000
C    -0.370000000    -0.060000000    -1.189000000
H    -1.429000000    -0.251000000    -1.343000000
C     0.510000000    -0.296000000    -2.256000000
H     0.129000000    -0.731000000    -3.177000000
C     1.954000000    -0.151000000    -2.034000000
C     2.859000000    -0.264000000    -3.221000000
O     2.301000000    -0.322000000    -4.305000000
O     4.098000000    -0.311000000    -3.113000000
O     0.417000000    -1.896000000    -5.479000000
H     1.080000000    -1.479000000    -4.930000000
H     0.371000000    -1.346000000    -6.260000000
O     6.665000000    -3.322000000    -6.384000000
H     6.024000000    -2.612000000    -6.350000000
H     7.053000000    -3.253000000    -7.257000000
O     7.865000000    -2.163000000    -1.804000000
H     7.570000000    -2.456000000    -0.942000000
H     8.820000000    -2.163000000    -1.743000000
O     8.457000000     1.765000000    -2.974000000
H     8.717000000     2.685000000    -3.029000000
H     8.624000000     1.524000000    -2.063000000
O     4.286000000    -5.017000000    -2.943000000
H     4.321000000    -4.958000000    -1.989000000
H     4.827000000    -4.288000000    -3.248000000
O     8.394000000    -3.422000000    -4.091000000
H     8.134000000    -2.846000000    -3.372000000
H     7.806000000    -3.189000000    -4.810000000
O     8.014000000     0.693000000    -8.021000000
H     7.559000000     0.741000000    -7.180000000
H     8.888000000     0.370000000    -7.802000000
O     2.262000000     0.997000000    -6.569000000
H     2.308000000     0.572000000    -5.713000000
H     1.439000000     0.687000000    -6.946000000
O     3.854000000    -5.790000000    -5.792000000
H     3.775000000    -5.203000000    -5.040000000
H     3.404000000    -6.590000000    -5.519000000
O    -0.129000000    -3.802000000    -7.164000000
H     0.029000000    -3.205000000    -6.433000000
H     0.741000000    -3.975000000    -7.524000000
O     5.444000000    -2.478000000    -3.049000000
H     6.232000000    -2.273000000    -2.545000000
H     4.937000000    -1.666000000    -3.041000000
O     3.721000000     4.774000000    -7.434000000
H     3.774000000     4.083000000    -8.093000000
H     3.649000000     4.307000000    -6.602000000
O     3.720000000     0.550000000    -8.861000000
H     3.151000000    -0.058000000    -9.333000000
H     3.508000000     0.409000000    -7.938000000
O     4.093000000     2.909000000    -5.735000000
H     4.537000000     2.410000000    -5.050000000
H     3.329000000     2.377000000    -5.962000000
O     0.491000000    -0.483000000    -8.148000000
H     0.650000000     0.161000000    -8.838000000
H     0.825000000    -1.306000000    -8.506000000
O     4.676000000    -1.573000000    -5.854000000
H     4.122000000    -1.814000000    -5.112000000
H     4.857000000    -0.642000000    -5.726000000
O     3.702000000    -2.865000000    -8.310000000
H     4.453000000    -2.948000000    -8.898000000
H     4.058000000    -2.450000000    -7.524000000
O     6.643000000     4.326000000    -6.323000000
H     5.893000000     3.738000000    -6.415000000
H     6.414000000     4.893000000    -5.586000000
O     5.888000000     1.219000000    -4.372000000
H     6.578000000     1.261000000    -3.710000000
H     5.232000000     0.631000000    -3.998000000
