215
-1449.86341
C     1.955000000    -4.673000000     0.756000000
H     0.871000000    -4.755000000     0.733000000
C     2.533000000    -3.817000000     1.623000000
C     3.938000000    -3.659000000     1.550000000
H     4.429000000    -2.822000000     2.039000000
C     1.755000000    -2.992000000     2.673000000
O     0.699000000    -3.822000000     3.260000000
H     1.247000000    -2.189000000     2.119000000
O     2.658000000    -2.413000000     3.672000000
C     2.423000000    -1.113000000     4.080000000
C     3.202000000    -0.173000000     3.515000000
H     4.086000000    -0.522000000     2.987000000
C     3.008000000     1.220000000     3.607000000
O     3.823000000     1.997000000     2.801000000
C     1.882000000     1.636000000     4.276000000
C     1.622000000     3.117000000     4.344000000
H     1.089000000     3.389000000     5.257000000
C     0.748000000     3.450000000     3.160000000
C    -0.670000000     3.448000000     3.332000000
H    -1.080000000     3.109000000     4.280000000
H     2.557000000     3.670000000     4.232000000
C     0.990000000     0.709000000     4.761000000
H     0.080000000     1.058000000     5.242000000
C     1.288000000    -0.680000000     4.753000000
C     0.215000000    -1.706000000     5.343000000
H    -0.401000000    -1.272000000     6.133000000
H     0.780000000    -2.575000000     5.686000000
C    -0.802000000    -2.145000000     4.287000000
C    -2.032000000    -1.484000000     4.255000000
H    -2.131000000    -0.626000000     4.914000000
C    -0.565000000    -3.196000000     3.383000000
C    -1.512000000    -3.415000000     2.394000000
H    -1.324000000    -4.158000000     1.623000000
C    -2.713000000    -2.697000000     2.296000000
O    -3.523000000    -2.897000000     1.186000000
C    -3.655000000    -1.890000000     0.201000000
C    -3.670000000    -2.337000000    -1.242000000
C    -4.446000000    -1.711000000    -2.288000000
H    -5.082000000    -0.868000000    -2.029000000
C    -2.832000000    -3.394000000    -1.601000000
H    -2.188000000    -3.778000000    -0.814000000
O    -4.827000000    -1.111000000     0.437000000
H    -2.769000000    -1.261000000     0.376000000
C    -3.022000000    -1.779000000     3.324000000
C    -4.304000000    -0.970000000     3.324000000
H    -4.466000000    -0.598000000     4.338000000
H    -5.076000000    -1.684000000     3.030000000
C    -4.303000000     0.201000000     2.355000000
C    -3.698000000     1.388000000     2.804000000
H    -3.221000000     1.422000000     3.780000000
C    -4.724000000     0.091000000     1.030000000
C    -4.521000000     1.180000000     0.142000000
H    -4.756000000     1.049000000    -0.912000000
C    -4.038000000     2.374000000     0.641000000
O    -3.768000000     3.353000000    -0.255000000
C    -2.428000000     3.458000000    -0.717000000
C    -2.364000000     3.460000000    -2.253000000
C    -3.474000000     3.138000000    -3.037000000
H    -4.366000000     2.949000000    -2.445000000
C    -1.145000000     3.814000000    -2.872000000
H    -0.276000000     3.928000000    -2.229000000
O    -1.767000000     4.570000000    -0.043000000
H    -1.876000000     2.530000000    -0.508000000
C    -3.554000000     2.458000000     1.956000000
C    -2.996000000     3.813000000     2.487000000
H    -3.192000000     3.834000000     3.561000000
H    -3.448000000     4.721000000     2.084000000
C    -1.489000000     3.907000000     2.285000000
C    -0.988000000     4.259000000     1.036000000
C     0.365000000     4.027000000     0.805000000
H     0.743000000     4.210000000    -0.198000000
C     1.229000000     3.648000000     1.856000000
O     2.602000000     3.591000000     1.616000000
C     3.215000000     2.309000000     1.539000000
H     2.432000000     1.547000000     1.413000000
C     4.136000000     2.162000000     0.346000000
C     5.279000000     1.426000000     0.414000000
H     5.485000000     0.858000000     1.318000000
C     3.970000000     2.901000000    -0.875000000
H     3.156000000     3.622000000    -0.883000000
C     4.756000000     2.749000000    -1.965000000
O     4.572000000     3.482000000    -3.151000000
C     5.826000000     1.851000000    -1.920000000
H     6.367000000     1.650000000    -2.841000000
C     6.127000000     1.275000000    -0.704000000
O     7.167000000     0.406000000    -0.523000000
C     7.179000000    -0.650000000     0.336000000
C     6.556000000    -1.806000000    -0.094000000
H     6.044000000    -1.918000000    -1.047000000
C     7.945000000    -0.545000000     1.491000000
H     8.471000000     0.378000000     1.720000000
C     8.002000000    -1.609000000     2.371000000
H     8.561000000    -1.550000000     3.301000000
C     7.414000000    -2.861000000     2.016000000
H     7.238000000    -3.701000000     2.683000000
C     6.731000000    -2.902000000     0.780000000
O     6.046000000    -4.047000000     0.444000000
C     4.707000000    -4.356000000     0.621000000
C     4.110000000    -5.126000000    -0.314000000
H     4.655000000    -5.567000000    -1.145000000
C     2.729000000    -5.327000000    -0.213000000
O     2.026000000    -6.121000000    -1.149000000
C     0.643000000    -6.273000000    -1.200000000
C    -0.093000000    -5.600000000    -2.160000000
H     0.429000000    -4.867000000    -2.771000000
C    -0.090000000    -7.119000000    -0.313000000
H     0.482000000    -7.583000000     0.486000000
C    -1.484000000    -7.255000000    -0.427000000
H    -2.038000000    -7.851000000     0.293000000
C    -2.170000000    -6.614000000    -1.410000000
H    -3.236000000    -6.729000000    -1.588000000
C    -1.470000000    -5.760000000    -2.301000000
O    -2.142000000    -5.091000000    -3.192000000
C    -2.847000000    -3.919000000    -2.926000000
C    -3.626000000    -3.241000000    -3.929000000
H    -3.694000000    -3.708000000    -4.909000000
C    -4.458000000    -2.215000000    -3.615000000
O    -5.280000000    -1.743000000    -4.635000000
C    -5.696000000    -0.435000000    -4.614000000
C    -4.940000000     0.633000000    -5.038000000
H    -3.969000000     0.436000000    -5.486000000
C    -6.933000000    -0.147000000    -4.051000000
H    -7.498000000    -1.012000000    -3.713000000
C    -7.418000000     1.102000000    -3.912000000
H    -8.363000000     1.244000000    -3.394000000
C    -6.623000000     2.180000000    -4.315000000
H    -6.933000000     3.183000000    -4.029000000
C    -5.391000000     1.917000000    -4.946000000
O    -4.538000000     3.029000000    -5.195000000
C    -3.402000000     3.186000000    -4.420000000
C    -2.184000000     3.543000000    -5.042000000
H    -2.065000000     3.635000000    -6.118000000
C    -1.079000000     3.844000000    -4.275000000
O     0.086000000     4.058000000    -4.922000000
C     1.147000000     4.603000000    -4.242000000
C     1.256000000     5.962000000    -3.955000000
H     0.416000000     6.645000000    -4.061000000
C     2.465000000     6.455000000    -3.461000000
H     2.616000000     7.489000000    -3.160000000
C     3.511000000     5.647000000    -3.216000000
H     4.404000000     6.043000000    -2.740000000
C     3.455000000     4.282000000    -3.388000000
C     2.282000000     3.749000000    -3.984000000
H     2.188000000     2.706000000    -4.277000000
C     1.880000000    -1.464000000    -1.117000000
H     2.925000000    -1.733000000    -0.984000000
C     1.394000000    -0.689000000    -0.115000000
H     1.976000000    -0.424000000     0.764000000
C    -0.023000000    -0.406000000    -0.193000000
H    -0.505000000     0.059000000     0.652000000
C    -0.713000000    -0.543000000    -1.382000000
H    -1.747000000    -0.244000000    -1.533000000
C    -0.091000000    -1.110000000    -2.490000000
H    -0.572000000    -1.048000000    -3.463000000
C     1.205000000    -1.603000000    -2.359000000
C     1.910000000    -2.369000000    -3.392000000
O     1.336000000    -2.715000000    -4.389000000
O     3.059000000    -2.708000000    -3.257000000
O     5.255000000    -4.298000000    -3.571000000
H     6.039000000    -3.813000000    -3.828000000
H     4.566000000    -3.635000000    -3.526000000
O    -0.471000000    -3.264000000    -6.387000000
H     0.111000000    -3.091000000    -5.647000000
H    -0.483000000    -4.218000000    -6.465000000
O     7.471000000    -2.854000000    -4.724000000
H     6.874000000    -2.216000000    -4.334000000
H     7.215000000    -2.889000000    -5.646000000
O     8.232000000     0.319000000    -4.333000000
H     7.538000000    -0.278000000    -4.052000000
H     7.829000000     1.186000000    -4.302000000
O     3.695000000    -8.169000000    -5.122000000
H     3.333000000    -8.541000000    -4.318000000
H     3.436000000    -7.248000000    -5.098000000
O     5.572000000    -1.035000000    -3.753000000
H     4.731000000    -1.472000000    -3.618000000
H     5.369000000    -0.298000000    -4.330000000
O     3.346000000     0.262000000    -8.577000000
H     3.230000000    -0.680000000    -8.700000000
H     3.695000000     0.571000000    -9.413000000
O     2.040000000    -5.792000000    -6.804000000
H     2.064000000    -5.584000000    -5.870000000
H     2.704000000    -5.222000000    -7.192000000
O     1.839000000     1.770000000    -6.901000000
H     2.264000000     1.352000000    -7.650000000
H     1.422000000     1.050000000    -6.430000000
O     5.728000000    -6.965000000    -3.355000000
H     4.988000000    -7.334000000    -2.873000000
H     5.471000000    -6.060000000    -3.533000000
O     2.379000000    -8.689000000    -2.654000000
H     1.758000000    -7.970000000    -2.769000000
H     2.147000000    -9.074000000    -1.809000000
O     2.703000000    -5.392000000    -4.315000000
H     2.385000000    -4.716000000    -3.716000000
H     3.624000000    -5.171000000    -4.458000000
O     2.367000000    -2.436000000    -8.961000000
H     3.130000000    -2.795000000    -9.412000000
H     2.527000000    -2.621000000    -8.035000000
O    -1.514000000    -2.007000000    -8.630000000
H    -1.699000000    -2.819000000    -9.102000000
H    -0.973000000    -2.278000000    -7.889000000
O     1.274000000    -0.656000000    -6.109000000
H     0.720000000    -1.119000000    -6.737000000
H     1.475000000    -1.310000000    -5.439000000
O    -0.735000000    -6.397000000    -7.907000000
H    -1.024000000    -6.039000000    -8.746000000
H     0.215000000    -6.278000000    -7.911000000
O     5.281000000    -5.419000000    -6.457000000
H     5.439000000    -5.396000000    -7.400000000
H     6.149000000    -5.537000000    -6.071000000
O     3.754000000    -3.156000000    -6.684000000
H     4.227000000    -3.988000000    -6.661000000
H     3.414000000    -3.049000000    -5.796000000
O     4.497000000     0.809000000    -5.719000000
H     3.611000000     0.662000000    -5.387000000
H     4.380000000     0.957000000    -6.657000000
