215
-1449.33414
C     2.795000000    -3.930000000     1.166000000
H     1.818000000    -4.208000000     1.555000000
C     3.344000000    -2.780000000     1.702000000
C     4.586000000    -2.338000000     1.221000000
H     5.012000000    -1.390000000     1.542000000
C     2.588000000    -1.939000000     2.677000000
O     1.883000000    -2.659000000     3.728000000
H     1.805000000    -1.454000000     2.075000000
O     3.466000000    -0.950000000     3.328000000
C     2.955000000     0.289000000     3.280000000
C     3.497000000     1.197000000     2.282000000
H     4.266000000     0.934000000     1.561000000
C     3.081000000     2.506000000     2.299000000
O     3.465000000     3.232000000     1.208000000
C     2.070000000     2.935000000     3.200000000
C     1.458000000     4.352000000     3.231000000
H     1.079000000     4.658000000     4.209000000
C     0.354000000     4.497000000     2.243000000
C    -0.978000000     4.273000000     2.656000000
H    -1.067000000     3.978000000     3.698000000
H     2.269000000     5.059000000     3.046000000
C     1.628000000     2.077000000     4.251000000
H     0.947000000     2.433000000     5.020000000
C     2.029000000     0.765000000     4.210000000
C     1.485000000    -0.211000000     5.387000000
H     1.013000000     0.333000000     6.207000000
H     2.321000000    -0.846000000     5.688000000
C     0.275000000    -1.062000000     4.809000000
C    -0.990000000    -0.576000000     4.931000000
H    -1.162000000     0.331000000     5.504000000
C     0.605000000    -2.276000000     4.155000000
C    -0.475000000    -3.070000000     3.706000000
H    -0.360000000    -3.968000000     3.105000000
C    -1.738000000    -2.573000000     3.832000000
O    -2.667000000    -3.202000000     3.028000000
C    -3.003000000    -2.656000000     1.773000000
C    -3.064000000    -3.691000000     0.715000000
C    -3.685000000    -3.412000000    -0.486000000
H    -4.169000000    -2.454000000    -0.654000000
C    -2.333000000    -4.913000000     0.805000000
H    -1.742000000    -5.175000000     1.679000000
O    -4.167000000    -1.855000000     1.810000000
H    -2.186000000    -1.970000000     1.505000000
C    -2.069000000    -1.315000000     4.478000000
C    -3.486000000    -0.786000000     4.563000000
H    -3.625000000    -0.147000000     5.437000000
H    -4.208000000    -1.602000000     4.627000000
C    -3.770000000     0.074000000     3.284000000
C    -3.506000000     1.453000000     3.335000000
H    -3.105000000     1.833000000     4.271000000
C    -4.131000000    -0.465000000     1.998000000
C    -4.157000000     0.259000000     0.852000000
H    -4.419000000    -0.099000000    -0.140000000
C    -4.029000000     1.620000000     1.013000000
O    -4.075000000     2.327000000    -0.204000000
C    -2.861000000     2.688000000    -0.851000000
C    -3.142000000     2.512000000    -2.346000000
C    -3.822000000     1.430000000    -2.891000000
H    -4.180000000     0.644000000    -2.230000000
C    -2.512000000     3.314000000    -3.270000000
H    -1.877000000     4.123000000    -2.918000000
O    -2.641000000     4.126000000    -0.617000000
H    -2.233000000     1.836000000    -0.551000000
C    -3.636000000     2.252000000     2.210000000
C    -3.429000000     3.777000000     2.345000000
H    -3.399000000     3.967000000     3.420000000
H    -4.224000000     4.415000000     1.953000000
C    -2.076000000     4.216000000     1.747000000
C    -1.773000000     4.435000000     0.386000000
C    -0.504000000     4.677000000    -0.024000000
H    -0.279000000     4.742000000    -1.085000000
C     0.555000000     4.726000000     0.851000000
O     1.828000000     4.712000000     0.333000000
C     2.527000000     3.510000000     0.124000000
H     1.873000000     2.625000000     0.131000000
C     3.181000000     3.450000000    -1.223000000
C     4.006000000     2.371000000    -1.412000000
H     4.311000000     1.791000000    -0.545000000
C     2.634000000     4.123000000    -2.324000000
H     2.068000000     5.035000000    -2.150000000
C     2.961000000     3.653000000    -3.573000000
O     2.460000000     4.238000000    -4.690000000
C     3.783000000     2.527000000    -3.760000000
H     3.946000000     2.144000000    -4.765000000
C     4.421000000     1.944000000    -2.682000000
O     5.221000000     0.859000000    -2.922000000
C     6.156000000     0.459000000    -1.942000000
C     5.884000000    -0.829000000    -1.457000000
H     5.054000000    -1.427000000    -1.824000000
C     7.402000000     1.119000000    -1.637000000
H     7.547000000     2.085000000    -2.113000000
C     8.291000000     0.458000000    -0.707000000
H     9.262000000     0.939000000    -0.621000000
C     7.935000000    -0.793000000    -0.254000000
H     8.618000000    -1.381000000     0.353000000
C     6.750000000    -1.416000000    -0.568000000
O     6.552000000    -2.726000000    -0.132000000
C     5.282000000    -3.093000000     0.229000000
C     4.670000000    -4.176000000    -0.351000000
H     5.237000000    -4.855000000    -0.983000000
C     3.498000000    -4.699000000     0.193000000
O     2.886000000    -5.797000000    -0.394000000
C     1.879000000    -6.492000000     0.222000000
C     0.560000000    -6.382000000    -0.236000000
H     0.302000000    -5.633000000    -0.980000000
C     2.162000000    -7.480000000     1.124000000
H     3.176000000    -7.558000000     1.508000000
C     1.224000000    -8.421000000     1.542000000
H     1.544000000    -9.209000000     2.219000000
C    -0.093000000    -8.293000000     1.116000000
H    -0.859000000    -8.996000000     1.433000000
C    -0.449000000    -7.232000000     0.309000000
O    -1.793000000    -7.133000000     0.020000000
C    -2.421000000    -5.920000000    -0.188000000
C    -3.117000000    -5.615000000    -1.404000000
H    -3.153000000    -6.384000000    -2.172000000
C    -3.659000000    -4.370000000    -1.532000000
O    -4.111000000    -4.058000000    -2.796000000
C    -4.835000000    -2.994000000    -3.113000000
C    -4.351000000    -1.970000000    -3.920000000
H    -3.323000000    -2.033000000    -4.268000000
C    -6.147000000    -2.868000000    -2.501000000
H    -6.587000000    -3.572000000    -1.799000000
C    -6.929000000    -1.757000000    -2.721000000
H    -7.893000000    -1.651000000    -2.231000000
C    -6.424000000    -0.739000000    -3.506000000
H    -6.968000000     0.198000000    -3.598000000
C    -5.137000000    -0.823000000    -4.053000000
O    -4.656000000     0.200000000    -4.790000000
C    -4.035000000     1.281000000    -4.247000000
C    -3.491000000     2.169000000    -5.173000000
H    -3.700000000     2.133000000    -6.239000000
C    -2.705000000     3.204000000    -4.703000000
O    -2.229000000     4.071000000    -5.645000000
C    -1.088000000     4.898000000    -5.375000000
C    -1.169000000     6.209000000    -5.107000000
H    -2.120000000     6.733000000    -5.151000000
C    -0.026000000     6.925000000    -4.670000000
H    -0.092000000     7.982000000    -4.428000000
C     1.198000000     6.302000000    -4.481000000
H     1.968000000     6.834000000    -3.929000000
C     1.261000000     4.943000000    -4.850000000
C     0.096000000     4.230000000    -5.252000000
H     0.247000000     3.157000000    -5.347000000
C     1.833000000    -1.818000000    -1.795000000
H     2.876000000    -1.937000000    -2.074000000
C     1.509000000    -0.783000000    -0.906000000
H     2.305000000    -0.075000000    -0.686000000
C     0.138000000    -0.668000000    -0.453000000
H    -0.197000000     0.031000000     0.176000000
C    -0.797000000    -1.570000000    -0.842000000
H    -1.835000000    -1.470000000    -0.535000000
C    -0.465000000    -2.517000000    -1.827000000
H    -1.280000000    -3.109000000    -2.235000000
C     0.854000000    -2.681000000    -2.275000000
C     1.186000000    -3.733000000    -3.347000000
O     0.268000000    -4.488000000    -3.656000000
O     2.248000000    -3.730000000    -4.002000000
O     7.363000000    -3.300000000    -3.247000000
H     7.889000000    -2.534000000    -3.016000000
H     6.492000000    -2.946000000    -3.429000000
O    -1.156000000    -3.939000000    -5.987000000
H    -0.667000000    -4.189000000    -5.203000000
H    -1.962000000    -4.454000000    -5.939000000
O    -0.478000000    -6.126000000    -8.385000000
H    -0.599000000    -6.443000000    -7.490000000
H     0.164000000    -5.421000000    -8.305000000
O     3.734000000    -0.522000000    -5.228000000
H     2.784000000    -0.601000000    -5.142000000
H     3.933000000     0.350000000    -4.888000000
O     0.863000000    -6.766000000    -5.614000000
H     1.669000000    -6.580000000    -6.095000000
H     0.879000000    -6.158000000    -4.874000000
O     4.716000000    -1.275000000    -7.397000000
H     4.189000000    -0.880000000    -6.703000000
H     5.563000000    -1.448000000    -6.986000000
O     4.097000000    -5.447000000    -4.636000000
H     4.461000000    -5.859000000    -3.853000000
H     3.346000000    -4.947000000    -4.317000000
O     4.905000000    -2.537000000    -3.984000000
H     4.357000000    -1.758000000    -4.080000000
H     4.286000000    -3.244000000    -3.803000000
O     3.161000000    -9.020000000    -4.907000000
H     3.446000000    -8.885000000    -4.003000000
H     2.760000000    -8.188000000    -5.158000000
O     5.574000000    -6.807000000    -2.917000000
H     5.482000000    -7.667000000    -2.506000000
H     6.476000000    -6.548000000    -2.730000000
O     0.574000000    -9.308000000    -3.882000000
H     1.526000000    -9.402000000    -3.858000000
H     0.422000000    -8.372000000    -3.747000000
O    -0.777000000    -6.790000000    -2.983000000
H    -1.218000000    -6.989000000    -3.809000000
H    -0.502000000    -5.878000000    -3.072000000
O     1.428000000    -2.776000000    -6.425000000
H     1.893000000    -2.998000000    -5.618000000
H     0.613000000    -3.276000000    -6.377000000
O     2.586000000    -9.034000000    -1.751000000
H     3.189000000    -9.549000000    -1.214000000
H     2.705000000    -8.134000000    -1.448000000
O    -1.560000000    -1.059000000    -5.847000000
H    -2.271000000    -1.072000000    -6.488000000
H    -1.319000000    -1.978000000    -5.737000000
O     3.185000000    -6.233000000    -7.036000000
H     3.309000000    -5.871000000    -6.159000000
H     3.713000000    -5.672000000    -7.604000000
O     1.350000000     0.018000000    -7.311000000
H     1.515000000    -0.916000000    -7.438000000
H     1.039000000     0.086000000    -6.408000000
O     6.583000000    -3.641000000    -6.240000000
H     6.656000000    -3.696000000    -5.287000000
H     5.680000000    -3.898000000    -6.427000000
O     0.897000000     0.043000000    -4.549000000
H     0.038000000    -0.312000000    -4.777000000
H     0.852000000     0.191000000    -3.604000000
