215
-1448.20421
C     2.667000000    -3.660000000     0.664000000
H     1.731000000    -3.918000000     1.153000000
C     3.475000000    -2.644000000     1.185000000
C     4.738000000    -2.394000000     0.584000000
H     5.359000000    -1.600000000     0.990000000
C     2.944000000    -1.797000000     2.299000000
O     2.369000000    -2.671000000     3.374000000
H     2.061000000    -1.290000000     1.883000000
O     3.948000000    -0.877000000     2.859000000
C     3.562000000     0.404000000     3.155000000
C     3.848000000     1.370000000     2.200000000
H     4.461000000     0.973000000     1.395000000
C     3.330000000     2.632000000     2.224000000
O     3.585000000     3.414000000     1.137000000
C     2.410000000     2.946000000     3.213000000
C     1.660000000     4.251000000     3.254000000
H     1.334000000     4.416000000     4.283000000
C     0.479000000     4.144000000     2.377000000
C    -0.830000000     3.878000000     2.852000000
H    -1.008000000     3.686000000     3.907000000
H     2.320000000     5.089000000     3.018000000
C     2.169000000     1.967000000     4.169000000
H     1.375000000     2.115000000     4.897000000
C     2.684000000     0.709000000     4.159000000
C     2.211000000    -0.345000000     5.118000000
H     1.824000000     0.171000000     6.000000000
H     3.053000000    -1.024000000     5.266000000
C     1.026000000    -1.173000000     4.540000000
C    -0.294000000    -0.712000000     4.725000000
H    -0.368000000     0.303000000     5.107000000
C     1.127000000    -2.339000000     3.823000000
C     0.084000000    -3.178000000     3.463000000
H     0.285000000    -4.129000000     2.976000000
C    -1.192000000    -2.687000000     3.792000000
O    -2.254000000    -3.333000000     3.174000000
C    -2.812000000    -2.706000000     2.034000000
C    -3.010000000    -3.678000000     0.900000000
C    -3.926000000    -3.435000000    -0.125000000
H    -4.510000000    -2.519000000    -0.151000000
C    -2.436000000    -4.975000000     1.023000000
H    -1.684000000    -5.146000000     1.789000000
O    -4.048000000    -2.001000000     2.320000000
H    -2.109000000    -1.965000000     1.627000000
C    -1.392000000    -1.511000000     4.421000000
C    -2.862000000    -1.025000000     4.709000000
H    -2.829000000    -0.487000000     5.658000000
H    -3.552000000    -1.853000000     4.889000000
C    -3.350000000    -0.114000000     3.553000000
C    -3.269000000     1.270000000     3.625000000
H    -2.918000000     1.775000000     4.521000000
C    -4.057000000    -0.661000000     2.488000000
C    -4.436000000     0.170000000     1.422000000
H    -4.950000000    -0.332000000     0.605000000
C    -4.182000000     1.511000000     1.394000000
O    -4.429000000     2.214000000     0.200000000
C    -3.240000000     2.674000000    -0.530000000
C    -3.312000000     2.523000000    -2.073000000
C    -4.174000000     1.512000000    -2.600000000
H    -4.581000000     0.821000000    -1.866000000
C    -2.669000000     3.323000000    -2.996000000
H    -2.056000000     4.145000000    -2.635000000
O    -2.852000000     4.071000000    -0.147000000
H    -2.317000000     2.133000000    -0.274000000
C    -3.616000000     2.138000000     2.524000000
C    -3.292000000     3.578000000     2.599000000
H    -3.385000000     3.863000000     3.649000000
H    -4.071000000     4.228000000     2.197000000
C    -1.925000000     3.943000000     2.048000000
C    -1.799000000     4.251000000     0.661000000
C    -0.567000000     4.372000000     0.161000000
H    -0.508000000     4.555000000    -0.909000000
C     0.545000000     4.464000000     1.013000000
O     1.761000000     4.586000000     0.362000000
C     2.494000000     3.370000000     0.155000000
H     1.915000000     2.450000000     0.321000000
C     2.993000000     3.134000000    -1.303000000
C     3.920000000     2.142000000    -1.626000000
H     4.183000000     1.420000000    -0.857000000
C     2.453000000     3.929000000    -2.376000000
H     1.636000000     4.596000000    -2.114000000
C     2.882000000     3.746000000    -3.690000000
O     2.505000000     4.645000000    -4.630000000
C     3.903000000     2.794000000    -3.961000000
H     4.326000000     2.636000000    -4.949000000
C     4.438000000     2.076000000    -2.936000000
O     5.300000000     0.997000000    -3.277000000
C     6.056000000     0.365000000    -2.349000000
C     5.904000000    -0.997000000    -2.190000000
H     5.259000000    -1.586000000    -2.838000000
C     7.132000000     1.002000000    -1.683000000
H     7.309000000     2.054000000    -1.895000000
C     7.903000000     0.270000000    -0.791000000
H     8.697000000     0.809000000    -0.280000000
C     7.751000000    -1.081000000    -0.643000000
H     8.427000000    -1.679000000    -0.036000000
C     6.703000000    -1.733000000    -1.307000000
O     6.358000000    -3.014000000    -1.118000000
C     5.188000000    -3.246000000    -0.460000000
C     4.347000000    -4.120000000    -1.023000000
H     4.722000000    -4.604000000    -1.921000000
C     3.132000000    -4.457000000    -0.382000000
O     2.371000000    -5.445000000    -1.026000000
C     1.569000000    -6.272000000    -0.258000000
C     0.221000000    -6.394000000    -0.604000000
H    -0.204000000    -5.796000000    -1.406000000
C     2.094000000    -7.033000000     0.741000000
H     3.094000000    -6.869000000     1.135000000
C     1.232000000    -7.842000000     1.499000000
H     1.663000000    -8.221000000     2.422000000
C    -0.133000000    -7.873000000     1.213000000
H    -0.766000000    -8.420000000     1.907000000
C    -0.628000000    -7.160000000     0.209000000
O    -2.023000000    -7.112000000     0.044000000
C    -2.632000000    -5.893000000     0.004000000
C    -3.391000000    -5.508000000    -1.157000000
H    -3.501000000    -6.134000000    -2.039000000
C    -4.123000000    -4.289000000    -1.196000000
O    -4.846000000    -4.008000000    -2.347000000
C    -5.462000000    -2.822000000    -2.557000000
C    -4.882000000    -1.979000000    -3.498000000
H    -3.980000000    -2.360000000    -3.970000000
C    -6.648000000    -2.504000000    -1.979000000
H    -7.101000000    -3.146000000    -1.227000000
C    -7.309000000    -1.322000000    -2.249000000
H    -8.171000000    -1.072000000    -1.637000000
C    -6.668000000    -0.460000000    -3.113000000
H    -7.024000000     0.566000000    -3.165000000
C    -5.522000000    -0.791000000    -3.736000000
O    -4.922000000     0.189000000    -4.521000000
C    -4.306000000     1.291000000    -4.005000000
C    -3.614000000     2.089000000    -4.872000000
H    -3.642000000     1.981000000    -5.953000000
C    -2.732000000     3.063000000    -4.363000000
O    -2.261000000     3.967000000    -5.277000000
C    -1.221000000     4.791000000    -5.131000000
C    -1.335000000     6.218000000    -5.266000000
H    -2.292000000     6.654000000    -5.543000000
C    -0.227000000     7.066000000    -5.089000000
H    -0.316000000     8.149000000    -5.069000000
C     1.037000000     6.546000000    -4.848000000
H     1.943000000     7.109000000    -4.637000000
C     1.195000000     5.157000000    -4.768000000
C     0.064000000     4.298000000    -4.864000000
H     0.199000000     3.219000000    -4.884000000
C     1.530000000    -1.994000000    -1.849000000
H     2.512000000    -2.265000000    -2.229000000
C     1.333000000    -0.900000000    -0.937000000
H     2.163000000    -0.353000000    -0.497000000
C     0.017000000    -0.568000000    -0.565000000
H    -0.154000000     0.399000000    -0.040000000
C    -1.099000000    -1.304000000    -1.073000000
H    -2.114000000    -1.004000000    -0.826000000
C    -0.872000000    -2.413000000    -1.822000000
H    -1.637000000    -3.138000000    -2.089000000
C     0.421000000    -2.760000000    -2.268000000
C     0.638000000    -3.836000000    -3.283000000
O    -0.353000000    -4.290000000    -3.859000000
O     1.727000000    -4.103000000    -3.700000000
O     6.455000000    -3.743000000    -5.353000000
H     5.499000000    -3.688000000    -5.345000000
H     6.670000000    -4.292000000    -4.599000000
O    -2.745000000    -5.372000000    -4.355000000
H    -1.970000000    -4.826000000    -4.482000000
H    -3.153000000    -5.028000000    -3.560000000
O     3.090000000    -9.610000000    -5.389000000
H     2.766000000    -9.239000000    -4.568000000
H     3.253000000    -8.850000000    -5.948000000
O     0.860000000    -1.563000000    -5.874000000
H     0.338000000    -2.279000000    -6.237000000
H     0.229000000    -1.026000000    -5.396000000
O    -2.712000000    -8.539000000    -6.326000000
H    -2.727000000    -8.247000000    -5.414000000
H    -2.114000000    -9.286000000    -6.329000000
O    -4.358000000    -5.094000000    -6.891000000
H    -4.905000000    -5.869000000    -6.767000000
H    -3.614000000    -5.229000000    -6.304000000
O     0.386000000    -6.053000000    -8.643000000
H     0.710000000    -6.669000000    -9.300000000
H     0.640000000    -6.440000000    -7.805000000
O    -2.798000000    -8.523000000    -3.601000000
H    -3.470000000    -8.155000000    -3.027000000
H    -2.382000000    -9.206000000    -3.074000000
O     3.126000000    -6.284000000    -3.766000000
H     3.954000000    -6.132000000    -3.310000000
H     2.616000000    -5.490000000    -3.605000000
O     3.310000000    -3.037000000    -5.705000000
H     2.999000000    -3.511000000    -4.934000000
H     2.663000000    -2.345000000    -5.838000000
O     1.074000000    -6.950000000    -6.227000000
H     1.832000000    -6.919000000    -5.643000000
H     0.321000000    -7.006000000    -5.639000000
O    -0.358000000    -6.965000000    -4.023000000
H    -1.227000000    -7.351000000    -3.915000000
H    -0.492000000    -6.029000000    -3.877000000
O    -0.412000000    -4.002000000    -6.887000000
H    -0.147000000    -4.522000000    -6.128000000
H    -0.445000000    -4.631000000    -7.608000000
O     1.717000000    -8.398000000    -3.260000000
H     0.893000000    -7.916000000    -3.324000000
H     2.394000000    -7.735000000    -3.393000000
O    -2.701000000    -2.755000000    -6.592000000
H    -1.851000000    -3.195000000    -6.561000000
H    -3.296000000    -3.411000000    -6.954000000
O     3.836000000    -4.631000000    -7.878000000
H     3.584000000    -4.000000000    -7.204000000
H     3.450000000    -4.287000000    -8.684000000
O     1.366000000    -0.817000000    -9.136000000
H     0.966000000    -1.491000000    -8.585000000
H     0.790000000    -0.058000000    -9.042000000
O    -2.149000000    -0.088000000    -6.640000000
H    -2.336000000    -1.016000000    -6.500000000
H    -1.532000000     0.140000000    -5.944000000
O    -0.870000000    -0.297000000    -4.074000000
H    -0.713000000     0.432000000    -3.474000000
H    -0.901000000    -1.069000000    -3.509000000
