215
-1445.75147
C     2.069000000    -4.427000000     1.456000000
H     0.988000000    -4.317000000     1.448000000
C     2.773000000    -3.454000000     2.209000000
C     4.157000000    -3.310000000     2.045000000
H     4.682000000    -2.492000000     2.531000000
C     1.983000000    -2.318000000     2.969000000
O     1.042000000    -2.826000000     3.960000000
H     1.459000000    -1.629000000     2.290000000
O     2.898000000    -1.548000000     3.775000000
C     2.749000000    -0.209000000     3.811000000
C     3.431000000     0.610000000     2.849000000
H     4.215000000     0.165000000     2.242000000
C     3.233000000     1.940000000     2.827000000
O     3.842000000     2.610000000     1.787000000
C     2.198000000     2.511000000     3.592000000
C     1.755000000     3.977000000     3.477000000
H     1.111000000     4.244000000     4.317000000
C     0.773000000     4.225000000     2.251000000
C    -0.592000000     4.110000000     2.424000000
H    -0.968000000     3.898000000     3.422000000
H     2.650000000     4.594000000     3.373000000
C     1.440000000     1.697000000     4.478000000
H     0.646000000     2.055000000     5.129000000
C     1.769000000     0.385000000     4.610000000
C     0.930000000    -0.472000000     5.594000000
H     0.670000000     0.198000000     6.416000000
H     1.477000000    -1.305000000     6.041000000
C    -0.292000000    -0.980000000     4.863000000
C    -1.566000000    -0.385000000     4.910000000
H    -1.707000000     0.560000000     5.428000000
C    -0.160000000    -2.139000000     4.025000000
C    -1.138000000    -2.598000000     3.233000000
H    -0.976000000    -3.530000000     2.698000000
C    -2.362000000    -1.979000000     3.211000000
O    -3.380000000    -2.579000000     2.408000000
C    -3.508000000    -1.898000000     1.087000000
C    -3.564000000    -2.818000000    -0.123000000
C    -4.173000000    -2.441000000    -1.331000000
H    -4.619000000    -1.452000000    -1.398000000
C    -2.953000000    -4.063000000    -0.061000000
H    -2.457000000    -4.413000000     0.841000000
O    -4.697000000    -1.090000000     1.179000000
H    -2.606000000    -1.278000000     0.984000000
C    -2.607000000    -0.839000000     4.023000000
C    -3.975000000    -0.169000000     3.998000000
H    -4.181000000     0.365000000     4.929000000
H    -4.755000000    -0.930000000     3.924000000
C    -4.081000000     0.755000000     2.730000000
C    -3.642000000     2.091000000     2.907000000
H    -3.233000000     2.436000000     3.853000000
C    -4.445000000     0.219000000     1.489000000
C    -4.447000000     1.082000000     0.406000000
H    -4.776000000     0.673000000    -0.545000000
C    -4.041000000     2.450000000     0.480000000
O    -3.766000000     3.121000000    -0.648000000
C    -2.467000000     3.138000000    -1.262000000
C    -2.541000000     2.998000000    -2.779000000
C    -3.556000000     2.212000000    -3.419000000
H    -4.329000000     1.697000000    -2.855000000
C    -1.550000000     3.476000000    -3.550000000
H    -0.653000000     3.937000000    -3.144000000
O    -1.832000000     4.387000000    -0.924000000
H    -1.865000000     2.347000000    -0.791000000
C    -3.687000000     2.937000000     1.789000000
C    -2.993000000     4.264000000     1.712000000
H    -3.062000000     4.781000000     2.671000000
H    -3.505000000     4.974000000     1.059000000
C    -1.512000000     4.189000000     1.424000000
C    -1.025000000     4.402000000     0.149000000
C     0.310000000     4.414000000    -0.088000000
H     0.698000000     4.403000000    -1.103000000
C     1.256000000     4.336000000     0.940000000
O     2.548000000     4.148000000     0.576000000
C     3.045000000     2.802000000     0.596000000
H     2.245000000     2.050000000     0.665000000
C     3.812000000     2.533000000    -0.702000000
C     4.678000000     1.447000000    -0.760000000
H     4.776000000     0.813000000     0.118000000
C     3.554000000     3.195000000    -1.867000000
H     2.749000000     3.926000000    -1.889000000
C     4.196000000     2.874000000    -3.106000000
O     3.926000000     3.617000000    -4.303000000
C     5.139000000     1.852000000    -3.080000000
H     5.754000000     1.543000000    -3.921000000
C     5.377000000     1.137000000    -1.891000000
O     6.208000000     0.043000000    -1.974000000
C     6.684000000    -0.759000000    -1.020000000
C     6.196000000    -1.993000000    -0.671000000
H     5.321000000    -2.262000000    -1.258000000
C     7.894000000    -0.391000000    -0.378000000
H     8.432000000     0.488000000    -0.722000000
C     8.462000000    -1.185000000     0.621000000
H     9.433000000    -0.906000000     1.022000000
C     7.852000000    -2.333000000     1.064000000
H     8.260000000    -2.876000000     1.913000000
C     6.666000000    -2.719000000     0.451000000
O     6.137000000    -3.895000000     0.878000000
C     4.841000000    -4.110000000     1.180000000
C     4.152000000    -5.215000000     0.595000000
H     4.716000000    -5.860000000    -0.074000000
C     2.793000000    -5.372000000     0.794000000
O     2.119000000    -6.517000000     0.255000000
C     0.819000000    -6.804000000     0.529000000
C    -0.195000000    -6.232000000    -0.232000000
H     0.021000000    -5.504000000    -1.010000000
C     0.489000000    -7.761000000     1.428000000
H     1.328000000    -8.290000000     1.872000000
C    -0.878000000    -8.009000000     1.700000000
H    -1.181000000    -8.650000000     2.524000000
C    -1.885000000    -7.511000000     0.948000000
H    -2.935000000    -7.761000000     1.078000000
C    -1.502000000    -6.578000000    -0.056000000
O    -2.386000000    -6.148000000    -1.007000000
C    -2.926000000    -4.888000000    -1.133000000
C    -3.593000000    -4.581000000    -2.308000000
H    -3.726000000    -5.388000000    -3.024000000
C    -4.172000000    -3.272000000    -2.436000000
O    -5.070000000    -3.003000000    -3.480000000
C    -5.617000000    -1.778000000    -3.858000000
C    -4.743000000    -0.826000000    -4.304000000
H    -3.686000000    -1.046000000    -4.429000000
C    -6.940000000    -1.508000000    -3.575000000
H    -7.570000000    -2.185000000    -3.005000000
C    -7.498000000    -0.288000000    -3.952000000
H    -8.564000000    -0.110000000    -3.843000000
C    -6.587000000     0.740000000    -4.417000000
H    -6.899000000     1.746000000    -4.686000000
C    -5.282000000     0.378000000    -4.634000000
O    -4.466000000     1.233000000    -5.390000000
C    -3.621000000     2.120000000    -4.794000000
C    -2.681000000     2.704000000    -5.613000000
H    -2.745000000     2.688000000    -6.698000000
C    -1.628000000     3.396000000    -4.963000000
O    -0.637000000     3.917000000    -5.756000000
C     0.467000000     4.518000000    -5.209000000
C     0.468000000     5.865000000    -4.732000000
H    -0.482000000     6.383000000    -4.831000000
C     1.571000000     6.417000000    -4.198000000
H     1.534000000     7.428000000    -3.800000000
C     2.726000000     5.677000000    -4.051000000
H     3.579000000     6.030000000    -3.476000000
C     2.740000000     4.372000000    -4.482000000
C     1.648000000     3.783000000    -5.102000000
H     1.759000000     2.718000000    -5.290000000
C     1.641000000    -1.837000000    -1.085000000
H     2.539000000    -2.446000000    -1.033000000
C     1.420000000    -0.977000000    -0.065000000
H     2.232000000    -0.837000000     0.644000000
C     0.159000000    -0.328000000     0.013000000
H    -0.055000000     0.413000000     0.797000000
C    -0.713000000    -0.480000000    -1.087000000
H    -1.651000000     0.068000000    -1.089000000
C    -0.511000000    -1.418000000    -2.076000000
H    -1.237000000    -1.500000000    -2.881000000
C     0.700000000    -2.094000000    -2.083000000
C     0.914000000    -3.099000000    -3.078000000
O     0.268000000    -3.119000000    -4.120000000
O     1.902000000    -3.762000000    -2.974000000
O     6.586000000    -4.577000000    -2.823000000
H     6.349000000    -5.502000000    -2.882000000
H     5.764000000    -4.109000000    -2.972000000
O    -2.698000000    -8.654000000    -3.217000000
H    -2.127000000    -8.013000000    -2.793000000
H    -2.376000000    -8.703000000    -4.117000000
O    -1.570000000    -1.867000000    -5.770000000
H    -0.795000000    -2.191000000    -5.311000000
H    -2.308000000    -2.192000000    -5.255000000
O     3.801000000    -0.765000000    -4.870000000
H     4.271000000    -0.845000000    -4.040000000
H     2.887000000    -0.636000000    -4.616000000
O     2.086000000    -4.478000000    -5.823000000
H     2.262000000    -5.350000000    -5.470000000
H     1.543000000    -4.055000000    -5.158000000
O     1.132000000    -6.440000000    -2.958000000
H     1.498000000    -5.597000000    -2.692000000
H     0.416000000    -6.213000000    -3.552000000
O     4.475000000    -3.045000000    -3.150000000
H     4.567000000    -2.573000000    -3.978000000
H     3.591000000    -3.409000000    -3.180000000
O     5.654000000    -7.230000000    -3.102000000
H     4.998000000    -7.284000000    -2.407000000
H     5.316000000    -7.794000000    -3.797000000
O    -0.834000000    -5.662000000    -4.664000000
H    -0.455000000    -4.784000000    -4.624000000
H    -1.776000000    -5.513000000    -4.744000000
O     1.095000000    -2.279000000    -7.316000000
H     0.203000000    -2.471000000    -7.027000000
H     1.634000000    -2.945000000    -6.887000000
O     1.130000000    -9.059000000    -2.703000000
H     1.810000000    -9.179000000    -2.040000000
H     0.911000000    -8.128000000    -2.656000000
O    -2.133000000    -1.340000000    -8.786000000
H    -2.767000000    -0.630000000    -8.683000000
H    -1.787000000    -1.482000000    -7.905000000
O     1.105000000    -7.409000000    -7.450000000
H     1.771000000    -7.005000000    -6.894000000
H     0.727000000    -6.679000000    -7.940000000
O    -2.990000000    -4.144000000    -5.596000000
H    -3.883000000    -4.067000000    -5.261000000
H    -3.096000000    -4.464000000    -6.491000000
O     2.647000000    -7.072000000    -5.173000000
H     2.027000000    -7.031000000    -4.445000000
H     3.166000000    -7.858000000    -5.001000000
O     4.095000000     0.411000000    -7.268000000
H     3.966000000     0.007000000    -6.410000000
H     3.414000000     1.082000000    -7.322000000
O     1.276000000     1.074000000    -7.399000000
H     1.014000000     0.866000000    -6.503000000
H     1.527000000     0.231000000    -7.777000000
O     4.866000000    -4.049000000    -6.471000000
H     3.992000000    -4.257000000    -6.140000000
H     5.052000000    -4.742000000    -7.105000000
O     0.228000000     0.643000000    -4.665000000
H     0.254000000     0.266000000    -3.785000000
H    -0.194000000     1.494000000    -4.549000000
