215
-1467.14771
C     2.560000000    -4.832000000    -0.671000000
H     1.827000000    -5.317000000    -0.031000000
C     3.382000000    -3.839000000    -0.221000000
C     4.353000000    -3.360000000    -1.124000000
H     4.923000000    -2.527000000    -0.723000000
C     3.051000000    -3.151000000     1.070000000
O     2.362000000    -4.126000000     2.009000000
H     2.294000000    -2.365000000     0.930000000
O     4.226000000    -2.608000000     1.683000000
C     4.018000000    -1.383000000     2.258000000
C     4.416000000    -0.301000000     1.435000000
H     5.018000000    -0.452000000     0.542000000
C     4.228000000     1.014000000     1.860000000
O     4.476000000     2.082000000     0.948000000
C     3.563000000     1.268000000     3.086000000
C     3.308000000     2.647000000     3.654000000
H     3.193000000     2.511000000     4.731000000
C     1.964000000     3.239000000     3.108000000
C     0.803000000     3.165000000     3.892000000
H     0.882000000     2.803000000     4.914000000
H     4.096000000     3.346000000     3.366000000
C     3.199000000     0.178000000     3.909000000
H     2.678000000     0.322000000     4.852000000
C     3.373000000    -1.159000000     3.495000000
C     2.804000000    -2.362000000     4.269000000
H     2.886000000    -2.134000000     5.333000000
H     3.631000000    -3.036000000     4.036000000
C     1.387000000    -2.829000000     3.854000000
C     0.302000000    -2.303000000     4.556000000
H     0.438000000    -1.732000000     5.471000000
C     1.236000000    -3.640000000     2.724000000
C    -0.093000000    -3.828000000     2.278000000
H    -0.347000000    -4.396000000     1.387000000
C    -1.197000000    -3.276000000     2.957000000
O    -2.455000000    -3.497000000     2.440000000
C    -2.938000000    -2.475000000     1.547000000
C    -3.399000000    -2.944000000     0.139000000
C    -4.361000000    -2.279000000    -0.565000000
H    -4.862000000    -1.434000000    -0.099000000
C    -2.938000000    -4.133000000    -0.326000000
H    -2.153000000    -4.647000000     0.222000000
O    -3.972000000    -1.690000000     2.219000000
H    -2.150000000    -1.722000000     1.395000000
C    -0.990000000    -2.485000000     4.081000000
C    -2.229000000    -1.862000000     4.821000000
H    -2.007000000    -1.518000000     5.834000000
H    -3.011000000    -2.611000000     4.956000000
C    -2.694000000    -0.596000000     4.104000000
C    -2.120000000     0.627000000     4.516000000
H    -1.464000000     0.725000000     5.377000000
C    -3.480000000    -0.605000000     2.903000000
C    -3.643000000     0.539000000     2.156000000
H    -4.287000000     0.409000000     1.290000000
C    -3.061000000     1.706000000     2.563000000
O    -3.409000000     2.782000000     1.894000000
C    -2.473000000     3.251000000     0.932000000
C    -3.235000000     3.584000000    -0.414000000
C    -4.428000000     2.994000000    -0.806000000
H    -4.952000000     2.282000000    -0.173000000
C    -2.628000000     4.473000000    -1.270000000
H    -1.671000000     4.935000000    -1.042000000
O    -1.708000000     4.350000000     1.468000000
H    -1.791000000     2.408000000     0.749000000
C    -2.229000000     1.807000000     3.731000000
C    -1.622000000     3.126000000     4.155000000
H    -1.440000000     3.145000000     5.232000000
H    -2.354000000     3.908000000     3.944000000
C    -0.419000000     3.425000000     3.356000000
C    -0.508000000     4.034000000     2.054000000
C     0.625000000     4.099000000     1.298000000
H     0.683000000     4.500000000     0.289000000
C     1.861000000     3.713000000     1.805000000
O     2.982000000     3.869000000     1.021000000
C     3.327000000     2.690000000     0.356000000
H     2.421000000     2.066000000     0.374000000
C     3.556000000     3.006000000    -1.091000000
C     4.107000000     2.073000000    -1.954000000
H     4.475000000     1.157000000    -1.499000000
C     2.893000000     4.170000000    -1.660000000
H     2.539000000     4.935000000    -0.974000000
C     2.761000000     4.313000000    -3.035000000
O     2.161000000     5.368000000    -3.577000000
C     3.314000000     3.354000000    -3.889000000
H     3.165000000     3.434000000    -4.963000000
C     4.007000000     2.224000000    -3.312000000
O     4.613000000     1.247000000    -4.104000000
C     5.429000000     0.222000000    -3.662000000
C     5.000000000    -1.079000000    -3.564000000
H     3.960000000    -1.271000000    -3.815000000
C     6.804000000     0.534000000    -3.587000000
H     7.179000000     1.554000000    -3.562000000
C     7.708000000    -0.476000000    -3.243000000
H     8.785000000    -0.344000000    -3.189000000
C     7.236000000    -1.794000000    -3.057000000
H     7.941000000    -2.611000000    -2.924000000
C     5.916000000    -2.085000000    -3.197000000
O     5.478000000    -3.423000000    -3.196000000
C     4.465000000    -3.878000000    -2.376000000
C     3.613000000    -4.862000000    -2.826000000
H     3.754000000    -5.253000000    -3.830000000
C     2.589000000    -5.377000000    -2.032000000
O     1.757000000    -6.407000000    -2.419000000
C     0.533000000    -6.715000000    -1.855000000
C    -0.584000000    -5.999000000    -2.250000000
H    -0.456000000    -5.223000000    -3.001000000
C     0.328000000    -7.698000000    -0.918000000
H     1.124000000    -8.374000000    -0.616000000
C    -0.950000000    -8.053000000    -0.387000000
H    -0.952000000    -8.826000000     0.376000000
C    -2.049000000    -7.371000000    -0.799000000
H    -2.964000000    -7.560000000    -0.243000000
C    -1.877000000    -6.386000000    -1.779000000
O    -2.978000000    -5.710000000    -2.198000000
C    -3.449000000    -4.631000000    -1.547000000
C    -4.353000000    -3.875000000    -2.249000000
H    -4.679000000    -4.222000000    -3.226000000
C    -4.845000000    -2.680000000    -1.800000000
O    -5.869000000    -2.038000000    -2.439000000
C    -6.445000000    -0.895000000    -2.054000000
C    -6.009000000     0.345000000    -2.598000000
H    -5.254000000     0.494000000    -3.366000000
C    -7.486000000    -0.943000000    -1.159000000
H    -7.771000000    -1.889000000    -0.705000000
C    -8.184000000     0.246000000    -0.877000000
H    -9.073000000     0.149000000    -0.259000000
C    -7.720000000     1.453000000    -1.314000000
H    -8.170000000     2.367000000    -0.935000000
C    -6.589000000     1.559000000    -2.144000000
O    -6.155000000     2.760000000    -2.484000000
C    -4.989000000     3.337000000    -2.009000000
C    -4.392000000     4.262000000    -2.842000000
H    -4.781000000     4.460000000    -3.838000000
C    -3.170000000     4.797000000    -2.495000000
O    -2.607000000     5.755000000    -3.319000000
C    -1.298000000     6.320000000    -3.070000000
C    -1.212000000     7.535000000    -2.370000000
H    -2.069000000     7.986000000    -1.876000000
C     0.081000000     7.991000000    -2.089000000
H     0.294000000     8.931000000    -1.587000000
C     1.151000000     7.258000000    -2.506000000
H     2.139000000     7.546000000    -2.154000000
C     1.080000000     6.021000000    -3.228000000
C    -0.225000000     5.576000000    -3.534000000
H    -0.393000000     4.616000000    -4.016000000
C     1.190000000    -1.308000000    -2.134000000
H     2.116000000    -1.374000000    -2.699000000
C     1.325000000    -0.736000000    -0.884000000
H     2.341000000    -0.722000000    -0.500000000
C     0.182000000    -0.419000000    -0.117000000
H     0.367000000     0.105000000     0.910000000
C    -1.090000000    -0.670000000    -0.694000000
H    -2.018000000    -0.361000000    -0.220000000
C    -1.189000000    -1.264000000    -1.941000000
H    -2.115000000    -1.470000000    -2.471000000
C    -0.070000000    -1.541000000    -2.760000000
C    -0.123000000    -1.980000000    -4.216000000
O    -1.230000000    -2.210000000    -4.695000000
O     0.911000000    -2.041000000    -4.834000000
O    -0.809000000     3.108000000    -6.227000000
H    -0.366000000     2.310000000    -5.937000000
H    -1.689000000     3.040000000    -5.858000000
O    -0.436000000    -4.308000000    -9.699000000
H    -1.342000000    -4.248000000   -10.000000000
H    -0.502000000    -4.641000000    -8.804000000
O     0.135000000     1.660000000    -2.848000000
H     0.497000000     0.918000000    -2.365000000
H     0.449000000     1.539000000    -3.744000000
O    -4.629000000     0.470000000    -6.737000000
H    -4.174000000    -0.001000000    -6.039000000
H    -5.408000000    -0.057000000    -6.914000000
O    -2.596000000    -4.605000000    -5.653000000
H    -2.317000000    -4.022000000    -4.947000000
H    -2.777000000    -4.021000000    -6.390000000
O     2.902000000    -5.907000000    -7.457000000
H     2.287000000    -6.459000000    -7.941000000
H     2.345000000    -5.336000000    -6.928000000
O     1.875000000     1.192000000    -9.089000000
H     1.167000000     0.963000000    -9.692000000
H     1.770000000     0.587000000    -8.355000000
O     1.880000000    -1.190000000    -7.111000000
H     2.130000000    -1.964000000    -7.615000000
H     1.831000000    -1.498000000    -6.206000000
O    -0.331000000    -5.896000000    -7.274000000
H    -0.833000000    -6.602000000    -6.869000000
H    -0.456000000    -5.147000000    -6.690000000
O     1.696000000    -4.879000000    -5.266000000
H     1.651000000    -3.925000000    -5.194000000
H     1.066000000    -5.198000000    -4.621000000
O    -1.408000000    -2.772000000    -7.278000000
H    -1.086000000    -1.965000000    -7.678000000
H    -1.295000000    -2.634000000    -6.337000000
O     1.611000000    -2.631000000    -9.422000000
H     0.859000000    -3.223000000    -9.442000000
H     1.455000000    -2.021000000   -10.143000000
O    -3.845000000    -6.934000000    -6.742000000
H    -3.416000000    -6.160000000    -6.377000000
H    -4.611000000    -6.590000000    -7.200000000
O     4.031000000    -3.389000000    -8.036000000
H     3.766000000    -3.203000000    -8.937000000
H     3.600000000    -4.217000000    -7.825000000
O    -3.524000000     2.853000000    -5.938000000
H    -3.261000000     2.497000000    -5.089000000
H    -4.120000000     2.196000000    -6.299000000
O    -2.085000000    -0.070000000    -8.277000000
H    -2.669000000    -0.675000000    -8.734000000
H    -2.591000000     0.224000000    -7.519000000
O    -3.444000000    -0.844000000    -4.458000000
H    -2.594000000    -1.284000000    -4.446000000
H    -4.083000000    -1.556000000    -4.479000000
O     0.957000000     1.167000000    -5.353000000
H     1.866000000     1.466000000    -5.313000000
H     0.994000000     0.358000000    -5.863000000
O    -2.595000000     1.740000000    -3.856000000
H    -2.875000000     0.831000000    -3.957000000
H    -1.830000000     1.693000000    -3.283000000
