215
-1477.94544
C     3.052000000    -4.448000000     0.194000000
H     2.278000000    -4.996000000     0.725000000
C     3.610000000    -3.308000000     0.717000000
C     4.762000000    -2.809000000     0.133000000
H     5.251000000    -1.954000000     0.595000000
C     2.927000000    -2.572000000     1.867000000
O     2.223000000    -3.474000000     2.732000000
H     2.186000000    -1.908000000     1.398000000
O     3.780000000    -1.720000000     2.581000000
C     3.361000000    -0.436000000     2.916000000
C     3.812000000     0.633000000     2.148000000
H     4.466000000     0.445000000     1.300000000
C     3.452000000     1.914000000     2.462000000
O     3.773000000     2.875000000     1.454000000
C     2.650000000     2.106000000     3.613000000
C     2.107000000     3.500000000     3.882000000
H     1.917000000     3.524000000     4.957000000
C     0.785000000     3.814000000     3.105000000
C    -0.439000000     3.310000000     3.564000000
H    -0.466000000     2.646000000     4.425000000
H     2.816000000     4.302000000     3.667000000
C     2.238000000     1.051000000     4.398000000
H     1.535000000     1.215000000     5.211000000
C     2.581000000    -0.263000000     4.038000000
C     2.107000000    -1.429000000     4.850000000
H     1.841000000    -1.163000000     5.875000000
H     3.000000000    -2.046000000     4.974000000
C     0.941000000    -2.180000000     4.229000000
C    -0.303000000    -1.714000000     4.521000000
H    -0.397000000    -1.089000000     5.406000000
C     1.046000000    -3.146000000     3.255000000
C    -0.055000000    -3.757000000     2.655000000
H     0.092000000    -4.460000000     1.839000000
C    -1.324000000    -3.345000000     3.028000000
O    -2.416000000    -3.746000000     2.273000000
C    -2.769000000    -2.916000000     1.174000000
C    -3.075000000    -3.631000000    -0.188000000
C    -4.035000000    -3.165000000    -1.094000000
H    -4.661000000    -2.317000000    -0.832000000
C    -2.256000000    -4.720000000    -0.558000000
H    -1.526000000    -4.951000000     0.214000000
O    -3.859000000    -2.061000000     1.565000000
H    -1.849000000    -2.344000000     0.983000000
C    -1.480000000    -2.321000000     4.003000000
C    -2.865000000    -1.797000000     4.398000000
H    -2.857000000    -1.456000000     5.435000000
H    -3.622000000    -2.577000000     4.290000000
C    -3.152000000    -0.609000000     3.474000000
C    -2.921000000     0.703000000     3.909000000
H    -2.391000000     0.794000000     4.854000000
C    -3.669000000    -0.815000000     2.153000000
C    -4.191000000     0.237000000     1.446000000
H    -4.731000000     0.066000000     0.519000000
C    -3.992000000     1.545000000     1.962000000
O    -4.275000000     2.618000000     1.094000000
C    -3.171000000     2.960000000     0.194000000
C    -3.482000000     3.166000000    -1.315000000
C    -4.296000000     2.231000000    -1.971000000
H    -4.588000000     1.321000000    -1.454000000
C    -2.858000000     4.133000000    -2.103000000
H    -2.034000000     4.669000000    -1.639000000
O    -2.627000000     4.192000000     0.663000000
H    -2.399000000     2.176000000     0.201000000
C    -3.326000000     1.780000000     3.140000000
C    -2.989000000     3.167000000     3.479000000
H    -2.900000000     3.175000000     4.567000000
H    -3.736000000     3.897000000     3.159000000
C    -1.648000000     3.557000000     2.862000000
C    -1.575000000     4.179000000     1.568000000
C    -0.318000000     4.466000000     1.032000000
H    -0.251000000     4.765000000    -0.011000000
C     0.800000000     4.313000000     1.787000000
O     2.076000000     4.455000000     1.184000000
C     2.682000000     3.221000000     0.652000000
H     1.982000000     2.377000000     0.739000000
C     3.061000000     3.398000000    -0.799000000
C     3.782000000     2.349000000    -1.398000000
H     4.069000000     1.518000000    -0.760000000
C     2.593000000     4.425000000    -1.593000000
H     1.812000000     5.084000000    -1.223000000
C     2.840000000     4.438000000    -2.969000000
O     2.428000000     5.505000000    -3.713000000
C     3.584000000     3.436000000    -3.583000000
H     3.820000000     3.614000000    -4.629000000
C     4.106000000     2.339000000    -2.785000000
O     4.967000000     1.442000000    -3.343000000
C     5.932000000     0.656000000    -2.643000000
C     5.654000000    -0.713000000    -2.574000000
H     4.786000000    -1.043000000    -3.140000000
C     6.931000000     1.262000000    -1.868000000
H     6.948000000     2.348000000    -1.817000000
C     7.702000000     0.410000000    -1.039000000
H     8.504000000     0.891000000    -0.486000000
C     7.569000000    -0.929000000    -1.040000000
H     8.246000000    -1.537000000    -0.445000000
C     6.498000000    -1.427000000    -1.754000000
O     6.391000000    -2.791000000    -1.669000000
C     5.275000000    -3.328000000    -1.040000000
C     4.685000000    -4.482000000    -1.593000000
H     5.021000000    -4.918000000    -2.530000000
C     3.578000000    -5.069000000    -0.951000000
O     2.906000000    -6.182000000    -1.463000000
C     1.761000000    -6.631000000    -0.927000000
C     0.602000000    -6.373000000    -1.643000000
H     0.572000000    -5.664000000    -2.467000000
C     1.730000000    -7.518000000     0.142000000
H     2.595000000    -7.787000000     0.743000000
C     0.509000000    -8.074000000     0.488000000
H     0.470000000    -8.758000000     1.332000000
C    -0.661000000    -7.826000000    -0.250000000
H    -1.587000000    -8.297000000     0.070000000
C    -0.601000000    -6.949000000    -1.293000000
O    -1.757000000    -6.594000000    -2.061000000
C    -2.474000000    -5.423000000    -1.765000000
C    -3.501000000    -5.039000000    -2.605000000
H    -3.511000000    -5.448000000    -3.612000000
C    -4.211000000    -3.868000000    -2.316000000
O    -5.113000000    -3.349000000    -3.195000000
C    -5.725000000    -2.163000000    -3.068000000
C    -5.084000000    -1.143000000    -3.764000000
H    -4.180000000    -1.295000000    -4.348000000
C    -6.963000000    -2.023000000    -2.459000000
H    -7.245000000    -2.875000000    -1.845000000
C    -7.550000000    -0.765000000    -2.448000000
H    -8.421000000    -0.646000000    -1.810000000
C    -6.893000000     0.321000000    -3.082000000
H    -7.284000000     1.335000000    -3.088000000
C    -5.615000000     0.141000000    -3.645000000
O    -4.892000000     1.236000000    -4.137000000
C    -4.422000000     2.278000000    -3.395000000
C    -3.861000000     3.309000000    -4.111000000
H    -3.948000000     3.285000000    -5.194000000
C    -2.961000000     4.199000000    -3.476000000
O    -2.308000000     5.074000000    -4.292000000
C    -1.229000000     5.924000000    -3.910000000
C    -1.450000000     7.253000000    -3.502000000
H    -2.403000000     7.776000000    -3.522000000
C    -0.305000000     7.947000000    -3.029000000
H    -0.425000000     8.937000000    -2.595000000
C     0.993000000     7.338000000    -2.983000000
H     1.886000000     7.900000000    -2.720000000
C     1.178000000     6.068000000    -3.592000000
C     0.085000000     5.377000000    -4.019000000
H     0.184000000     4.312000000    -4.211000000
C     1.879000000    -1.348000000    -1.729000000
H     2.894000000    -1.414000000    -2.112000000
C     1.606000000    -0.554000000    -0.577000000
H     2.402000000    -0.010000000    -0.075000000
C     0.292000000    -0.425000000    -0.152000000
H     0.017000000     0.166000000     0.746000000
C    -0.673000000    -1.102000000    -0.806000000
H    -1.694000000    -0.892000000    -0.498000000
C    -0.462000000    -1.908000000    -1.934000000
H    -1.267000000    -2.447000000    -2.428000000
C     0.874000000    -2.013000000    -2.415000000
C     1.224000000    -2.765000000    -3.672000000
O     0.328000000    -3.414000000    -4.171000000
O     2.238000000    -2.530000000    -4.369000000
O     2.504000000    -5.250000000    -5.145000000
H     1.617000000    -5.500000000    -5.406000000
H     2.407000000    -4.372000000    -4.777000000
O     4.886000000    -5.265000000    -7.346000000
H     4.812000000    -4.486000000    -6.793000000
H     4.928000000    -5.994000000    -6.728000000
O     0.695000000     2.069000000    -2.549000000
H     1.391000000     2.485000000    -2.040000000
H     1.036000000     1.199000000    -2.753000000
O    -0.445000000    -5.796000000    -5.356000000
H    -1.255000000    -5.922000000    -4.862000000
H    -0.160000000    -4.912000000    -5.127000000
O    -1.858000000    -2.447000000    -5.186000000
H    -1.119000000    -2.822000000    -4.706000000
H    -2.430000000    -3.193000000    -5.366000000
O     0.318000000    -7.449000000    -7.466000000
H    -0.253000000    -6.919000000    -6.909000000
H     1.072000000    -6.885000000    -7.641000000
O     4.541000000    -7.042000000    -5.328000000
H     3.841000000    -6.452000000    -5.049000000
H     4.939000000    -7.345000000    -4.511000000
O     2.813000000     0.147000000    -5.232000000
H     3.682000000     0.147000000    -5.631000000
H     2.548000000    -0.773000000    -5.235000000
O     1.270000000     2.340000000    -6.043000000
H     1.676000000     1.764000000    -5.395000000
H     0.350000000     2.076000000    -6.054000000
O    -3.140000000    -4.790000000    -6.278000000
H    -3.890000000    -4.311000000    -6.629000000
H    -3.368000000    -5.712000000    -6.397000000
O     5.402000000    -0.185000000    -6.360000000
H     5.880000000     0.395000000    -5.766000000
H     5.243000000     0.349000000    -7.139000000
O     2.322000000    -0.478000000    -8.444000000
H     2.265000000     0.382000000    -8.026000000
H     1.794000000    -1.050000000    -7.886000000
O     2.549000000    -6.172000000    -8.460000000
H     2.933000000    -6.212000000    -9.336000000
H     3.244000000    -5.811000000    -7.910000000
O     4.709000000    -2.802000000    -5.887000000
H     3.854000000    -2.760000000    -5.459000000
H     4.999000000    -1.890000000    -5.931000000
O     0.819000000    -1.830000000    -6.629000000
H     1.137000000    -2.358000000    -5.897000000
H     0.122000000    -1.293000000    -6.252000000
O     6.549000000    -3.924000000    -4.301000000
H     6.767000000    -3.341000000    -3.573000000
H     5.992000000    -3.395000000    -4.873000000
O    -2.501000000    -0.112000000    -6.265000000
H    -1.994000000     0.426000000    -5.657000000
H    -2.380000000    -1.007000000    -5.950000000
O     0.296000000    -4.046000000    -8.400000000
H     1.115000000    -4.541000000    -8.369000000
H     0.518000000    -3.193000000    -8.026000000
O    -1.467000000     1.404000000    -4.409000000
H    -0.757000000     1.569000000    -3.787000000
H    -2.266000000     1.538000000    -3.900000000
