215
-1448.19359
C     2.403000000    -4.441000000    -0.260000000
H     1.717000000    -5.087000000     0.281000000
C     3.054000000    -3.344000000     0.298000000
C     4.029000000    -2.682000000    -0.509000000
H     4.605000000    -1.878000000    -0.058000000
C     2.622000000    -2.753000000     1.675000000
O     2.240000000    -3.730000000     2.620000000
H     1.839000000    -1.999000000     1.501000000
O     3.753000000    -2.046000000     2.214000000
C     3.535000000    -0.866000000     2.936000000
C     4.069000000     0.248000000     2.302000000
H     4.736000000     0.124000000     1.453000000
C     3.495000000     1.471000000     2.582000000
O     3.891000000     2.476000000     1.760000000
C     2.548000000     1.660000000     3.626000000
C     2.011000000     2.954000000     4.085000000
H     1.854000000     2.873000000     5.163000000
C     0.785000000     3.444000000     3.285000000
C    -0.513000000     3.239000000     3.800000000
H    -0.598000000     2.880000000     4.823000000
H     2.815000000     3.691000000     4.032000000
C     2.276000000     0.559000000     4.413000000
H     1.551000000     0.650000000     5.218000000
C     2.714000000    -0.727000000     4.091000000
C     2.163000000    -1.963000000     4.841000000
H     1.938000000    -1.741000000     5.886000000
H     2.883000000    -2.783000000     4.834000000
C     0.887000000    -2.439000000     4.174000000
C    -0.394000000    -1.944000000     4.466000000
H    -0.489000000    -1.312000000     5.345000000
C     0.975000000    -3.450000000     3.152000000
C    -0.188000000    -3.821000000     2.446000000
H    -0.066000000    -4.603000000     1.701000000
C    -1.485000000    -3.352000000     2.872000000
O    -2.585000000    -3.836000000     2.189000000
C    -3.046000000    -2.947000000     1.132000000
C    -3.591000000    -3.703000000    -0.024000000
C    -4.282000000    -3.019000000    -1.038000000
H    -4.523000000    -1.972000000    -0.869000000
C    -3.047000000    -4.960000000    -0.387000000
H    -2.305000000    -5.524000000     0.173000000
O    -4.081000000    -2.014000000     1.671000000
H    -2.239000000    -2.427000000     0.595000000
C    -1.579000000    -2.351000000     3.885000000
C    -2.902000000    -1.756000000     4.338000000
H    -2.667000000    -1.351000000     5.324000000
H    -3.622000000    -2.575000000     4.399000000
C    -3.248000000    -0.541000000     3.432000000
C    -2.998000000     0.771000000     3.890000000
H    -2.533000000     0.953000000     4.856000000
C    -3.793000000    -0.764000000     2.164000000
C    -4.022000000     0.345000000     1.344000000
H    -4.331000000     0.139000000     0.322000000
C    -3.752000000     1.638000000     1.824000000
O    -3.959000000     2.706000000     0.959000000
C    -2.758000000     3.237000000     0.240000000
C    -3.027000000     3.454000000    -1.271000000
C    -3.889000000     2.554000000    -1.939000000
H    -4.232000000     1.629000000    -1.483000000
C    -2.592000000     4.608000000    -1.908000000
H    -2.104000000     5.363000000    -1.297000000
O    -2.314000000     4.466000000     0.878000000
H    -1.950000000     2.490000000     0.261000000
C    -3.296000000     1.853000000     3.076000000
C    -2.924000000     3.244000000     3.549000000
H    -2.884000000     3.233000000     4.641000000
H    -3.701000000     3.986000000     3.353000000
C    -1.539000000     3.562000000     2.987000000
C    -1.364000000     4.194000000     1.823000000
C    -0.091000000     4.392000000     1.324000000
H    -0.021000000     4.842000000     0.338000000
C     1.040000000     4.030000000     2.049000000
O     2.252000000     4.144000000     1.534000000
C     2.932000000     3.030000000     0.865000000
H     2.179000000     2.249000000     0.681000000
C     3.543000000     3.401000000    -0.474000000
C     4.540000000     2.557000000    -0.950000000
H     5.076000000     1.890000000    -0.280000000
C     3.038000000     4.399000000    -1.270000000
H     2.274000000     5.058000000    -0.866000000
C     3.417000000     4.420000000    -2.605000000
O     2.739000000     5.302000000    -3.479000000
C     4.476000000     3.622000000    -3.054000000
H     4.760000000     3.707000000    -4.100000000
C     5.066000000     2.777000000    -2.181000000
O     6.124000000     2.039000000    -2.692000000
C     6.462000000     0.749000000    -2.196000000
C     5.787000000    -0.370000000    -2.643000000
H     4.934000000    -0.233000000    -3.303000000
C     7.649000000     0.630000000    -1.434000000
H     8.294000000     1.441000000    -1.105000000
C     8.092000000    -0.690000000    -1.112000000
H     8.944000000    -0.954000000    -0.491000000
C     7.343000000    -1.806000000    -1.505000000
H     7.651000000    -2.795000000    -1.174000000
C     6.106000000    -1.631000000    -2.216000000
O     5.340000000    -2.665000000    -2.578000000
C     4.310000000    -3.134000000    -1.808000000
C     3.653000000    -4.233000000    -2.309000000
H     3.803000000    -4.552000000    -3.338000000
C     2.705000000    -4.920000000    -1.541000000
O     2.012000000    -6.007000000    -2.112000000
C     0.925000000    -6.689000000    -1.624000000
C    -0.354000000    -6.281000000    -1.932000000
H    -0.443000000    -5.373000000    -2.524000000
C     1.150000000    -7.878000000    -0.928000000
H     2.122000000    -8.350000000    -0.816000000
C     0.064000000    -8.512000000    -0.327000000
H     0.389000000    -9.371000000     0.254000000
C    -1.213000000    -8.132000000    -0.619000000
H    -2.001000000    -8.674000000    -0.102000000
C    -1.447000000    -7.046000000    -1.527000000
O    -2.706000000    -6.754000000    -1.972000000
C    -3.304000000    -5.559000000    -1.636000000
C    -4.127000000    -4.928000000    -2.602000000
H    -4.427000000    -5.313000000    -3.574000000
C    -4.549000000    -3.633000000    -2.274000000
O    -5.191000000    -2.898000000    -3.246000000
C    -5.679000000    -1.562000000    -3.101000000
C    -4.954000000    -0.459000000    -3.480000000
H    -3.997000000    -0.580000000    -3.981000000
C    -6.993000000    -1.361000000    -2.718000000
H    -7.575000000    -2.206000000    -2.360000000
C    -7.617000000    -0.117000000    -2.741000000
H    -8.615000000     0.105000000    -2.371000000
C    -6.841000000     0.996000000    -3.112000000
H    -7.200000000     2.022000000    -3.085000000
C    -5.540000000     0.795000000    -3.542000000
O    -4.779000000     1.777000000    -4.023000000
C    -4.025000000     2.738000000    -3.306000000
C    -3.434000000     3.853000000    -3.934000000
H    -3.553000000     3.997000000    -5.005000000
C    -2.703000000     4.803000000    -3.275000000
O    -2.073000000     5.822000000    -3.917000000
C    -0.814000000     6.320000000    -3.407000000
C    -0.713000000     7.532000000    -2.760000000
H    -1.608000000     8.119000000    -2.570000000
C     0.522000000     8.061000000    -2.386000000
H     0.521000000     8.906000000    -1.703000000
C     1.688000000     7.332000000    -2.680000000
H     2.649000000     7.708000000    -2.340000000
C     1.595000000     6.057000000    -3.260000000
C     0.341000000     5.535000000    -3.600000000
H     0.128000000     4.573000000    -4.059000000
C     1.730000000    -0.575000000    -2.238000000
H     2.703000000    -0.366000000    -2.674000000
C     1.415000000    -0.078000000    -1.005000000
H     2.076000000     0.461000000    -0.331000000
C     0.126000000    -0.291000000    -0.560000000
H    -0.135000000     0.139000000     0.423000000
C    -0.908000000    -0.812000000    -1.400000000
H    -1.931000000    -0.891000000    -1.041000000
C    -0.595000000    -1.300000000    -2.618000000
H    -1.271000000    -1.806000000    -3.303000000
C     0.805000000    -1.293000000    -2.982000000
C     1.177000000    -1.821000000    -4.341000000
O     0.617000000    -2.800000000    -4.729000000
O     2.051000000    -1.253000000    -4.972000000
O     2.165000000    -4.227000000    -6.294000000
H     2.341000000    -4.995000000    -5.750000000
H     1.823000000    -3.575000000    -5.683000000
O     5.333000000    -4.485000000    -5.729000000
H     4.787000000    -3.706000000    -5.838000000
H     4.707000000    -5.205000000    -5.646000000
O    -0.706000000     1.496000000    -4.249000000
H     0.179000000     1.649000000    -4.579000000
H    -0.593000000     0.850000000    -3.551000000
O    -1.646000000    -3.168000000    -9.809000000
H    -1.460000000    -4.008000000    -9.389000000
H    -1.479000000    -2.518000000    -9.126000000
O    -0.245000000    -5.353000000    -5.199000000
H    -1.169000000    -5.463000000    -4.974000000
H    -0.105000000    -4.406000000    -5.180000000
O    -3.073000000    -3.466000000    -5.731000000
H    -3.257000000    -3.189000000    -4.833000000
H    -3.829000000    -3.999000000    -5.977000000
O     3.568000000    -6.532000000    -5.642000000
H     3.625000000    -7.294000000    -5.065000000
H     2.952000000    -6.795000000    -6.326000000
O     2.168000000     1.049000000    -8.501000000
H     2.166000000     1.230000000    -7.561000000
H     2.585000000     0.191000000    -8.578000000
O     2.583000000     1.064000000    -5.629000000
H     3.540000000     1.075000000    -5.621000000
H     2.351000000     0.169000000    -5.381000000
O     2.361000000     3.643000000    -5.823000000
H     2.988000000     3.881000000    -5.140000000
H     2.415000000     2.689000000    -5.877000000
O     5.274000000     0.616000000    -5.743000000
H     5.898000000     1.013000000    -5.136000000
H     5.780000000     0.463000000    -6.541000000
O     3.463000000    -1.470000000    -8.659000000
H     3.978000000    -1.373000000    -7.858000000
H     2.726000000    -2.024000000    -8.403000000
O     4.437000000    -1.972000000    -5.949000000
H     3.612000000    -1.759000000    -5.511000000
H     5.052000000    -1.308000000    -5.638000000
O     1.079000000    -2.024000000    -7.650000000
H     1.388000000    -2.065000000    -6.745000000
H     0.140000000    -2.198000000    -7.591000000
O    -0.268000000     0.316000000    -9.031000000
H     0.593000000     0.696000000    -8.856000000
H    -0.333000000    -0.421000000    -8.423000000
O    -1.927000000    -4.909000000    -7.681000000
H    -1.312000000    -5.378000000    -7.118000000
H    -2.603000000    -4.589000000    -7.083000000
O    -1.741000000    -1.429000000    -7.186000000
H    -2.150000000    -0.571000000    -7.076000000
H    -2.240000000    -2.008000000    -6.610000000
O     2.116000000    -4.531000000    -8.894000000
H     2.203000000    -4.344000000    -7.959000000
H     1.542000000    -3.839000000    -9.224000000
O    -3.166000000     1.270000000    -6.181000000
H    -2.602000000     1.249000000    -5.408000000
H    -3.667000000     2.081000000    -6.090000000
