215
-1440.12771
C     1.005000000    -4.702000000    -1.489000000
H     0.179000000    -5.032000000    -0.864000000
C     2.165000000    -4.015000000    -0.982000000
C     3.009000000    -3.462000000    -1.969000000
H     3.799000000    -2.801000000    -1.622000000
C     2.144000000    -3.584000000     0.524000000
O     1.403000000    -4.518000000     1.351000000
H     1.563000000    -2.655000000     0.425000000
O     3.464000000    -3.339000000     1.017000000
C     3.678000000    -2.307000000     1.776000000
C     4.264000000    -1.222000000     1.115000000
H     4.766000000    -1.220000000     0.151000000
C     4.288000000     0.009000000     1.715000000
O     4.839000000     1.057000000     0.959000000
C     3.815000000     0.171000000     3.011000000
C     3.828000000     1.542000000     3.704000000
H     3.767000000     1.445000000     4.790000000
C     2.639000000     2.326000000     3.260000000
C     1.522000000     2.353000000     4.072000000
H     1.537000000     1.894000000     5.057000000
H     4.719000000     2.106000000     3.423000000
C     3.234000000    -0.924000000     3.689000000
H     2.754000000    -0.732000000     4.646000000
C     3.157000000    -2.140000000     3.053000000
C     2.561000000    -3.298000000     3.758000000
H     2.766000000    -3.191000000     4.826000000
H     3.032000000    -4.235000000     3.455000000
C     1.049000000    -3.310000000     3.437000000
C     0.155000000    -2.802000000     4.370000000
H     0.599000000    -2.354000000     5.255000000
C     0.546000000    -4.045000000     2.341000000
C    -0.843000000    -4.121000000     2.142000000
H    -1.272000000    -4.611000000     1.271000000
C    -1.670000000    -3.441000000     2.964000000
O    -2.964000000    -3.236000000     2.577000000
C    -3.370000000    -2.027000000     1.936000000
C    -4.238000000    -2.483000000     0.677000000
C    -4.934000000    -1.484000000    -0.010000000
H    -4.961000000    -0.478000000     0.400000000
C    -4.104000000    -3.725000000     0.116000000
H    -3.492000000    -4.481000000     0.600000000
O    -4.211000000    -1.299000000     2.810000000
H    -2.555000000    -1.377000000     1.583000000
C    -1.246000000    -2.799000000     4.095000000
C    -2.305000000    -1.996000000     4.884000000
H    -1.834000000    -1.816000000     5.853000000
H    -3.197000000    -2.588000000     5.098000000
C    -2.610000000    -0.530000000     4.400000000
C    -1.753000000     0.479000000     4.754000000
H    -0.931000000     0.253000000     5.428000000
C    -3.569000000    -0.263000000     3.440000000
C    -3.721000000     0.992000000     2.848000000
H    -4.515000000     1.211000000     2.138000000
C    -2.731000000     1.919000000     3.125000000
O    -2.801000000     3.136000000     2.384000000
C    -1.713000000     3.446000000     1.400000000
C    -2.289000000     3.951000000     0.154000000
C    -3.661000000     3.913000000    -0.108000000
H    -4.389000000     3.550000000     0.613000000
C    -1.433000000     4.526000000    -0.787000000
H    -0.372000000     4.512000000    -0.551000000
O    -0.786000000     4.357000000     2.008000000
H    -1.170000000     2.500000000     1.264000000
C    -1.772000000     1.721000000     4.117000000
C    -0.835000000     2.908000000     4.577000000
H    -0.505000000     2.864000000     5.617000000
H    -1.357000000     3.867000000     4.556000000
C     0.367000000     3.017000000     3.642000000
C     0.381000000     3.835000000     2.481000000
C     1.546000000     3.804000000     1.700000000
H     1.565000000     4.507000000     0.872000000
C     2.636000000     3.076000000     2.091000000
O     3.668000000     3.075000000     1.253000000
C     3.916000000     2.001000000     0.313000000
H     2.952000000     1.541000000     0.050000000
C     4.327000000     2.536000000    -0.943000000
C     4.908000000     1.667000000    -1.854000000
H     5.154000000     0.681000000    -1.467000000
C     3.879000000     3.837000000    -1.376000000
H     3.296000000     4.373000000    -0.632000000
C     4.216000000     4.284000000    -2.655000000
O     3.752000000     5.512000000    -3.261000000
C     4.833000000     3.361000000    -3.552000000
H     5.027000000     3.711000000    -4.563000000
C     5.194000000     2.129000000    -3.146000000
O     5.728000000     1.297000000    -4.096000000
C     5.783000000    -0.119000000    -3.963000000
C     4.646000000    -0.930000000    -4.203000000
H     3.701000000    -0.454000000    -4.450000000
C     7.013000000    -0.690000000    -3.641000000
H     7.914000000    -0.104000000    -3.481000000
C     7.072000000    -2.031000000    -3.412000000
H     8.046000000    -2.507000000    -3.328000000
C     5.945000000    -2.853000000    -3.611000000
H     6.065000000    -3.930000000    -3.527000000
C     4.730000000    -2.258000000    -3.957000000
O     3.778000000    -3.142000000    -4.293000000
C     2.976000000    -3.786000000    -3.339000000
C     1.815000000    -4.495000000    -3.707000000
H     1.731000000    -4.658000000    -4.778000000
C     0.803000000    -4.888000000    -2.871000000
O    -0.302000000    -5.405000000    -3.429000000
C    -1.290000000    -5.995000000    -2.707000000
C    -2.438000000    -5.278000000    -2.455000000
H    -2.531000000    -4.259000000    -2.824000000
C    -1.170000000    -7.362000000    -2.314000000
H    -0.189000000    -7.822000000    -2.411000000
C    -2.153000000    -7.925000000    -1.569000000
H    -1.977000000    -8.898000000    -1.117000000
C    -3.332000000    -7.172000000    -1.226000000
H    -4.076000000    -7.737000000    -0.671000000
C    -3.530000000    -5.853000000    -1.731000000
O    -4.734000000    -5.257000000    -1.556000000
C    -4.803000000    -3.969000000    -1.083000000
C    -5.396000000    -2.926000000    -1.840000000
H    -5.999000000    -3.115000000    -2.724000000
C    -5.420000000    -1.718000000    -1.287000000
O    -5.923000000    -0.700000000    -2.037000000
C    -6.371000000     0.510000000    -1.474000000
C    -5.546000000     1.595000000    -1.784000000
H    -4.588000000     1.513000000    -2.291000000
C    -7.646000000     0.647000000    -0.933000000
H    -8.345000000    -0.141000000    -0.665000000
C    -8.135000000     1.910000000    -0.617000000
H    -9.176000000     2.154000000    -0.422000000
C    -7.377000000     2.971000000    -0.957000000
H    -7.719000000     3.991000000    -0.802000000
C    -6.128000000     2.864000000    -1.559000000
O    -5.404000000     3.992000000    -1.800000000
C    -4.110000000     4.197000000    -1.463000000
C    -3.215000000     4.818000000    -2.396000000
H    -3.474000000     5.076000000    -3.420000000
C    -1.869000000     4.954000000    -2.051000000
O    -0.952000000     5.280000000    -3.050000000
C     0.239000000     5.958000000    -2.762000000
C     0.174000000     7.229000000    -2.324000000
H    -0.786000000     7.736000000    -2.258000000
C     1.342000000     8.032000000    -2.287000000
H     1.329000000     9.077000000    -1.989000000
C     2.541000000     7.405000000    -2.563000000
H     3.444000000     8.006000000    -2.637000000
C     2.599000000     6.094000000    -2.930000000
C     1.452000000     5.401000000    -3.098000000
H     1.547000000     4.374000000    -3.442000000
C     0.430000000    -0.641000000    -2.445000000
H     1.296000000    -0.747000000    -3.093000000
C     0.695000000    -0.379000000    -1.104000000
H     1.703000000    -0.211000000    -0.734000000
C    -0.355000000    -0.273000000    -0.203000000
H    -0.158000000     0.214000000     0.763000000
C    -1.655000000    -0.371000000    -0.689000000
H    -2.474000000    -0.106000000    -0.025000000
C    -1.945000000    -0.754000000    -1.996000000
H    -2.965000000    -0.731000000    -2.373000000
C    -0.890000000    -0.917000000    -2.914000000
C    -1.180000000    -1.208000000    -4.329000000
O    -2.355000000    -1.108000000    -4.722000000
O    -0.338000000    -1.575000000    -5.131000000
O    -2.282000000     2.342000000    -8.110000000
H    -3.128000000     2.147000000    -7.706000000
H    -1.757000000     2.709000000    -7.398000000
O    -3.027000000    -3.086000000    -8.156000000
H    -3.977000000    -3.176000000    -8.234000000
H    -2.892000000    -2.162000000    -7.945000000
O     0.437000000     0.822000000    -5.979000000
H     0.273000000    -0.086000000    -5.726000000
H     1.172000000     0.772000000    -6.590000000
O    -4.578000000     1.859000000    -6.626000000
H    -4.816000000     1.323000000    -5.870000000
H    -5.412000000     2.201000000    -6.949000000
O     1.529000000     1.030000000   -10.092000000
H     1.803000000     0.818000000    -9.199000000
H     1.745000000     0.248000000   -10.600000000
O    -4.115000000    -3.016000000    -5.510000000
H    -3.577000000    -3.276000000    -6.258000000
H    -3.566000000    -2.402000000    -5.022000000
O     0.039000000    -5.892000000    -7.709000000
H    -0.644000000    -6.507000000    -7.977000000
H    -0.337000000    -5.427000000    -6.961000000
O    -0.926000000    -4.153000000    -9.628000000
H    -1.718000000    -3.758000000    -9.264000000
H    -0.468000000    -4.514000000    -8.870000000
O     0.353000000    -2.024000000    -7.593000000
H     0.905000000    -2.805000000    -7.563000000
H     0.031000000    -1.923000000    -6.697000000
O    -0.982000000    -4.254000000    -5.727000000
H    -0.977000000    -3.328000000    -5.483000000
H    -0.724000000    -4.713000000    -4.928000000
O    -2.710000000    -0.650000000    -7.297000000
H    -2.943000000     0.271000000    -7.411000000
H    -2.469000000    -0.723000000    -6.374000000
O    -3.386000000    -5.705000000    -6.446000000
H    -3.617000000    -5.378000000    -7.315000000
H    -2.635000000    -5.174000000    -6.182000000
O    -5.769000000    -0.796000000    -7.360000000
H    -6.494000000    -1.411000000    -7.468000000
H    -5.424000000    -0.982000000    -6.487000000
O     2.259000000    -0.108000000    -7.751000000
H     1.620000000    -0.792000000    -7.949000000
H     3.108000000    -0.543000000    -7.830000000
O    -6.162000000    -4.943000000    -4.751000000
H    -6.387000000    -4.015000000    -4.686000000
H    -5.300000000    -4.952000000    -5.168000000
O     2.848000000    -3.155000000    -7.188000000
H     3.128000000    -2.739000000    -6.372000000
H     3.524000000    -2.916000000    -7.822000000
O    -1.203000000     3.253000000    -5.462000000
H    -1.810000000     3.399000000    -4.737000000
H    -0.791000000     2.411000000    -5.263000000
O    -4.705000000    -0.056000000    -4.696000000
H    -3.841000000    -0.449000000    -4.572000000
H    -5.299000000    -0.623000000    -4.205000000
O    -1.081000000    -0.569000000    -9.613000000
H    -1.494000000    -0.145000000    -8.861000000
H    -0.682000000    -1.361000000    -9.252000000
