215
-1448.68077
C    -0.505000000    -5.343000000    -1.357000000
H    -1.455000000    -5.419000000    -0.833000000
C     0.587000000    -4.719000000    -0.784000000
C     1.775000000    -4.578000000    -1.534000000
H     2.659000000    -4.010000000    -1.256000000
C     0.529000000    -4.140000000     0.614000000
O    -0.381000000    -4.750000000     1.387000000
H     0.329000000    -3.069000000     0.461000000
O     1.814000000    -4.406000000     1.237000000
C     2.360000000    -3.424000000     1.951000000
C     3.317000000    -2.681000000     1.355000000
H     3.778000000    -2.902000000     0.396000000
C     3.766000000    -1.549000000     2.006000000
O     4.718000000    -0.718000000     1.443000000
C     3.387000000    -1.220000000     3.315000000
C     3.866000000     0.048000000     3.980000000
H     3.610000000     0.041000000     5.042000000
C     3.042000000     1.312000000     3.500000000
C     1.799000000     1.581000000     4.169000000
H     1.592000000     0.954000000     5.033000000
H     4.922000000     0.299000000     3.859000000
C     2.544000000    -2.140000000     4.011000000
H     2.235000000    -1.979000000     5.040000000
C     1.875000000    -3.136000000     3.262000000
C     0.829000000    -3.967000000     3.896000000
H     0.961000000    -4.091000000     4.973000000
H     0.962000000    -4.982000000     3.515000000
C    -0.533000000    -3.491000000     3.424000000
C    -1.272000000    -2.526000000     4.158000000
H    -0.953000000    -2.146000000     5.125000000
C    -1.103000000    -3.985000000     2.218000000
C    -2.336000000    -3.596000000     1.774000000
H    -2.713000000    -3.963000000     0.822000000
C    -2.991000000    -2.572000000     2.395000000
O    -4.061000000    -2.065000000     1.797000000
C    -3.858000000    -0.744000000     1.230000000
C    -4.336000000    -0.590000000    -0.166000000
C    -4.552000000     0.692000000    -0.781000000
H    -4.458000000     1.588000000    -0.173000000
C    -4.466000000    -1.723000000    -0.936000000
H    -4.173000000    -2.687000000    -0.528000000
O    -4.470000000     0.326000000     2.024000000
H    -2.775000000    -0.557000000     1.178000000
C    -2.482000000    -2.094000000     3.623000000
C    -3.266000000    -1.011000000     4.279000000
H    -3.145000000    -1.108000000     5.360000000
H    -4.342000000    -1.167000000     4.185000000
C    -2.883000000     0.391000000     3.773000000
C    -1.830000000     1.069000000     4.399000000
H    -1.181000000     0.517000000     5.074000000
C    -3.643000000     1.021000000     2.847000000
C    -3.302000000     2.303000000     2.444000000
H    -3.838000000     2.754000000     1.613000000
C    -2.217000000     2.966000000     2.989000000
O    -1.806000000     4.211000000     2.506000000
C    -0.672000000     4.154000000     1.551000000
C    -0.869000000     5.094000000     0.372000000
C    -2.197000000     5.293000000    -0.097000000
H    -3.097000000     4.894000000     0.365000000
C     0.184000000     5.704000000    -0.269000000
H     1.183000000     5.446000000     0.073000000
O     0.625000000     4.410000000     2.148000000
H    -0.509000000     3.182000000     1.063000000
C    -1.476000000     2.356000000     4.020000000
C    -0.228000000     2.935000000     4.579000000
H     0.008000000     2.498000000     5.552000000
H    -0.275000000     4.017000000     4.718000000
C     0.986000000     2.646000000     3.725000000
C     1.296000000     3.305000000     2.600000000
C     2.422000000     2.969000000     1.842000000
H     2.676000000     3.377000000     0.867000000
C     3.298000000     1.999000000     2.349000000
O     4.347000000     1.616000000     1.605000000
C     4.183000000     0.406000000     0.819000000
H     3.092000000     0.311000000     0.716000000
C     4.674000000     0.673000000    -0.692000000
C     5.249000000    -0.354000000    -1.430000000
H     5.486000000    -1.308000000    -0.967000000
C     4.269000000     1.828000000    -1.252000000
H     3.714000000     2.536000000    -0.641000000
C     4.583000000     2.066000000    -2.625000000
O     4.211000000     3.257000000    -3.325000000
C     5.118000000     1.002000000    -3.425000000
H     5.325000000     1.191000000    -4.475000000
C     5.529000000    -0.140000000    -2.808000000
O     5.875000000    -1.198000000    -3.629000000
C     5.627000000    -2.477000000    -3.225000000
C     4.445000000    -3.086000000    -3.643000000
H     3.758000000    -2.434000000    -4.175000000
C     6.513000000    -3.178000000    -2.415000000
H     7.496000000    -2.794000000    -2.154000000
C     6.209000000    -4.504000000    -2.049000000
H     6.982000000    -5.091000000    -1.560000000
C     5.014000000    -5.068000000    -2.469000000
H     4.838000000    -6.100000000    -2.177000000
C     4.142000000    -4.359000000    -3.254000000
O     2.932000000    -4.949000000    -3.642000000
C     1.830000000    -5.027000000    -2.826000000
C     0.758000000    -5.653000000    -3.433000000
H     0.826000000    -6.093000000    -4.424000000
C    -0.370000000    -5.742000000    -2.728000000
O    -1.538000000    -6.235000000    -3.367000000
C    -2.825000000    -5.869000000    -2.970000000
C    -3.262000000    -4.528000000    -3.130000000
H    -2.554000000    -3.803000000    -3.522000000
C    -3.674000000    -6.797000000    -2.387000000
H    -3.445000000    -7.847000000    -2.223000000
C    -4.958000000    -6.482000000    -2.004000000
H    -5.616000000    -7.223000000    -1.556000000
C    -5.315000000    -5.171000000    -2.214000000
H    -6.283000000    -4.885000000    -1.811000000
C    -4.548000000    -4.165000000    -2.721000000
O    -4.999000000    -2.843000000    -2.974000000
C    -4.902000000    -1.622000000    -2.265000000
C    -5.129000000    -0.406000000    -2.866000000
H    -5.388000000    -0.349000000    -3.920000000
C    -5.000000000     0.768000000    -2.110000000
O    -5.161000000     1.965000000    -2.813000000
C    -5.466000000     3.194000000    -2.284000000
C    -4.353000000     4.018000000    -2.170000000
H    -3.400000000     3.711000000    -2.592000000
C    -6.715000000     3.587000000    -1.963000000
H    -7.552000000     2.945000000    -2.221000000
C    -6.936000000     4.849000000    -1.578000000
H    -7.910000000     5.312000000    -1.449000000
C    -5.862000000     5.716000000    -1.544000000
H    -5.990000000     6.772000000    -1.318000000
C    -4.551000000     5.275000000    -1.857000000
O    -3.542000000     6.188000000    -1.789000000
C    -2.300000000     5.979000000    -1.311000000
C    -1.209000000     6.590000000    -1.917000000
H    -1.273000000     7.152000000    -2.845000000
C     0.070000000     6.423000000    -1.410000000
O     1.146000000     6.870000000    -2.084000000
C     2.371000000     6.151000000    -1.988000000
C     3.415000000     6.933000000    -1.462000000
H     3.157000000     7.951000000    -1.185000000
C     4.711000000     6.436000000    -1.418000000
H     5.482000000     7.134000000    -1.102000000
C     4.984000000     5.198000000    -1.986000000
H     6.021000000     4.874000000    -2.018000000
C     3.932000000     4.449000000    -2.606000000
C     2.643000000     4.964000000    -2.541000000
H     1.812000000     4.399000000    -2.957000000
C     0.911000000    -0.802000000    -2.131000000
H     1.532000000    -1.490000000    -2.698000000
C     1.131000000    -0.707000000    -0.784000000
H     1.901000000    -1.338000000    -0.348000000
C     0.222000000     0.120000000    -0.036000000
H     0.313000000     0.298000000     1.044000000
C    -0.857000000     0.771000000    -0.666000000
H    -1.477000000     1.482000000    -0.125000000
C    -0.998000000     0.628000000    -2.041000000
H    -1.750000000     1.217000000    -2.559000000
C    -0.127000000    -0.158000000    -2.826000000
C    -0.259000000    -0.292000000    -4.306000000
O    -1.013000000     0.436000000    -4.954000000
O     0.568000000    -1.016000000    -4.827000000
O    -2.081000000     3.238000000    -7.618000000
H    -1.154000000     2.998000000    -7.590000000
H    -2.354000000     3.035000000    -8.512000000
O    -0.126000000     3.086000000    -5.116000000
H     0.783000000     2.797000000    -5.198000000
H    -0.624000000     2.278000000    -4.993000000
O    -3.635000000     0.109000000    -6.124000000
H    -2.766000000     0.009000000    -5.736000000
H    -3.469000000     0.218000000    -7.060000000
O     0.246000000     6.082000000    -5.598000000
H     0.191000000     5.189000000    -5.259000000
H    -0.602000000     6.472000000    -5.385000000
O    -0.180000000    -5.413000000    -7.865000000
H     0.076000000    -4.564000000    -8.227000000
H     0.589000000    -5.706000000    -7.376000000
O    -3.653000000    -3.533000000    -8.608000000
H    -3.492000000    -3.581000000    -7.666000000
H    -3.089000000    -4.209000000    -8.983000000
O    -2.994000000     0.385000000    -8.744000000
H    -2.081000000     0.226000000    -8.503000000
H    -2.989000000     0.407000000    -9.701000000
O     2.452000000     2.683000000    -5.568000000
H     2.979000000     2.475000000    -4.796000000
H     2.991000000     2.405000000    -6.308000000
O    -2.531000000     4.231000000    -5.055000000
H    -1.638000000     3.915000000    -4.914000000
H    -2.750000000     3.942000000    -5.940000000
O    -5.087000000     2.835000000    -6.109000000
H    -4.848000000     2.646000000    -5.202000000
H    -4.556000000     2.232000000    -6.628000000
O    -0.879000000    -3.094000000    -5.487000000
H    -0.347000000    -3.284000000    -6.259000000
H    -0.384000000    -2.426000000    -5.013000000
O     3.640000000     1.203000000    -7.404000000
H     3.453000000     0.337000000    -7.040000000
H     3.842000000     1.037000000    -8.325000000
O     2.649000000    -0.958000000    -6.417000000
H     2.613000000    -1.886000000    -6.650000000
H     1.966000000    -0.850000000    -5.756000000
O    -0.386000000    -0.137000000    -7.379000000
H    -0.690000000     0.117000000    -6.508000000
H     0.305000000    -0.777000000    -7.215000000
O    -2.435000000    -5.423000000    -6.524000000
H    -2.263000000    -4.708000000    -5.912000000
H    -1.792000000    -5.301000000    -7.223000000
O     0.657000000     2.331000000    -8.325000000
H     0.305000000     1.537000000    -7.922000000
H     1.589000000     2.145000000    -8.446000000
O    -3.521000000    -2.671000000    -5.822000000
H    -3.747000000    -1.746000000    -5.916000000
H    -2.686000000    -2.668000000    -5.353000000
O     1.365000000     5.102000000    -7.991000000
H     1.010000000     4.240000000    -7.774000000
H     1.009000000     5.684000000    -7.319000000
O     0.739000000    -2.685000000    -7.965000000
H     0.560000000    -2.202000000    -8.772000000
H     1.644000000    -2.984000000    -8.060000000
