215
-1450.92878
C    -0.253000000    -5.359000000    -0.618000000
H    -1.220000000    -5.103000000    -0.192000000
C     0.921000000    -4.908000000    -0.007000000
C     2.194000000    -5.042000000    -0.606000000
H     3.054000000    -4.748000000    -0.011000000
C     0.767000000    -4.189000000     1.281000000
O    -0.253000000    -4.692000000     2.087000000
H     0.521000000    -3.144000000     1.041000000
O     1.997000000    -4.316000000     2.007000000
C     2.424000000    -3.096000000     2.522000000
C     3.387000000    -2.384000000     1.863000000
H     3.663000000    -2.703000000     0.861000000
C     3.842000000    -1.133000000     2.299000000
O     4.668000000    -0.433000000     1.446000000
C     3.327000000    -0.579000000     3.459000000
C     3.707000000     0.806000000     3.928000000
H     3.626000000     0.803000000     5.017000000
C     2.849000000     1.907000000     3.290000000
C     1.739000000     2.397000000     4.034000000
H     1.338000000     1.889000000     4.907000000
H     4.773000000     0.956000000     3.744000000
C     2.505000000    -1.344000000     4.229000000
H     2.232000000    -0.991000000     5.220000000
C     2.046000000    -2.600000000     3.791000000
C     0.922000000    -3.357000000     4.468000000
H     0.955000000    -3.076000000     5.522000000
H     1.106000000    -4.433000000     4.500000000
C    -0.448000000    -3.060000000     3.871000000
C    -1.149000000    -2.029000000     4.480000000
H    -0.743000000    -1.536000000     5.359000000
C    -0.941000000    -3.724000000     2.735000000
C    -2.174000000    -3.242000000     2.158000000
H    -2.550000000    -3.717000000     1.255000000
C    -2.907000000    -2.273000000     2.773000000
O    -3.995000000    -1.790000000     2.134000000
C    -3.898000000    -0.576000000     1.383000000
C    -4.435000000    -0.633000000    -0.019000000
C    -5.218000000     0.403000000    -0.499000000
H    -5.583000000     1.120000000     0.231000000
C    -4.141000000    -1.715000000    -0.847000000
H    -3.528000000    -2.520000000    -0.450000000
O    -4.382000000     0.541000000     2.169000000
H    -2.852000000    -0.406000000     1.088000000
C    -2.352000000    -1.604000000     3.896000000
C    -3.041000000    -0.362000000     4.517000000
H    -2.702000000    -0.255000000     5.550000000
H    -4.117000000    -0.426000000     4.691000000
C    -2.676000000     0.932000000     3.755000000
C    -1.635000000     1.743000000     4.180000000
H    -0.969000000     1.352000000     4.945000000
C    -3.487000000     1.362000000     2.681000000
C    -3.217000000     2.514000000     1.992000000
H    -3.699000000     2.860000000     1.081000000
C    -2.267000000     3.388000000     2.549000000
O    -1.933000000     4.480000000     1.832000000
C    -0.735000000     4.353000000     0.953000000
C    -0.979000000     5.023000000    -0.483000000
C    -2.203000000     5.076000000    -1.076000000
H    -3.052000000     4.625000000    -0.568000000
C     0.148000000     5.461000000    -1.195000000
H     1.162000000     5.407000000    -0.806000000
O     0.531000000     4.864000000     1.596000000
H    -0.500000000     3.307000000     0.708000000
C    -1.501000000     3.013000000     3.675000000
C    -0.310000000     3.904000000     4.145000000
H    -0.118000000     3.789000000     5.213000000
H    -0.457000000     4.973000000     3.977000000
C     1.014000000     3.481000000     3.485000000
C     1.322000000     3.967000000     2.252000000
C     2.421000000     3.519000000     1.522000000
H     2.569000000     3.999000000     0.557000000
C     3.170000000     2.447000000     2.015000000
O     4.143000000     1.900000000     1.184000000
C     3.911000000     0.568000000     0.670000000
H     2.835000000     0.363000000     0.774000000
C     4.134000000     0.448000000    -0.798000000
C     4.742000000    -0.716000000    -1.385000000
H     5.072000000    -1.526000000    -0.738000000
C     3.702000000     1.456000000    -1.603000000
H     3.216000000     2.340000000    -1.198000000
C     3.912000000     1.432000000    -2.991000000
O     3.500000000     2.409000000    -3.928000000
C     4.651000000     0.343000000    -3.475000000
H     4.956000000     0.399000000    -4.516000000
C     5.004000000    -0.759000000    -2.728000000
O     5.595000000    -1.851000000    -3.321000000
C     5.644000000    -3.122000000    -2.846000000
C     4.531000000    -3.921000000    -2.881000000
H     3.587000000    -3.649000000    -3.348000000
C     6.814000000    -3.577000000    -2.232000000
H     7.585000000    -2.820000000    -2.109000000
C     6.844000000    -4.770000000    -1.584000000
H     7.783000000    -5.045000000    -1.110000000
C     5.729000000    -5.572000000    -1.601000000
H     5.686000000    -6.415000000    -0.917000000
C     4.545000000    -5.165000000    -2.241000000
O     3.489000000    -6.038000000    -2.355000000
C     2.274000000    -5.748000000    -1.835000000
C     1.120000000    -6.278000000    -2.474000000
H     1.153000000    -6.903000000    -3.362000000
C    -0.134000000    -6.094000000    -1.819000000
O    -1.265000000    -6.548000000    -2.525000000
C    -2.530000000    -5.960000000    -2.377000000
C    -2.739000000    -4.641000000    -2.840000000
H    -1.830000000    -4.091000000    -3.074000000
C    -3.603000000    -6.682000000    -1.980000000
H    -3.449000000    -7.737000000    -1.769000000
C    -4.866000000    -6.087000000    -1.936000000
H    -5.738000000    -6.607000000    -1.547000000
C    -5.009000000    -4.763000000    -2.163000000
H    -5.971000000    -4.300000000    -1.957000000
C    -3.920000000    -3.987000000    -2.611000000
O    -4.053000000    -2.655000000    -3.043000000
C    -4.527000000    -1.681000000    -2.198000000
C    -5.323000000    -0.614000000    -2.674000000
H    -5.510000000    -0.503000000    -3.739000000
C    -5.652000000     0.446000000    -1.832000000
O    -6.492000000     1.477000000    -2.270000000
C    -6.175000000     2.802000000    -2.197000000
C    -4.957000000     3.404000000    -2.639000000
H    -4.314000000     2.818000000    -3.292000000
C    -7.079000000     3.643000000    -1.558000000
H    -7.949000000     3.209000000    -1.071000000
C    -6.876000000     5.005000000    -1.472000000
H    -7.622000000     5.590000000    -0.940000000
C    -5.744000000     5.574000000    -1.914000000
H    -5.612000000     6.652000000    -1.879000000
C    -4.687000000     4.792000000    -2.455000000
O    -3.623000000     5.365000000    -3.033000000
C    -2.395000000     5.430000000    -2.415000000
C    -1.272000000     6.026000000    -3.019000000
H    -1.436000000     6.448000000    -4.007000000
C    -0.030000000     6.029000000    -2.445000000
O     1.108000000     6.422000000    -3.204000000
C     2.283000000     5.641000000    -3.192000000
C     3.402000000     6.320000000    -2.767000000
H     3.291000000     7.312000000    -2.337000000
C     4.648000000     5.628000000    -2.672000000
H     5.477000000     6.168000000    -2.223000000
C     4.714000000     4.294000000    -3.158000000
H     5.655000000     3.749000000    -3.150000000
C     3.579000000     3.661000000    -3.616000000
C     2.326000000     4.296000000    -3.618000000
H     1.439000000     3.760000000    -3.946000000
C     1.124000000    -1.104000000    -2.284000000
H     1.598000000    -1.911000000    -2.837000000
C     1.109000000    -1.144000000    -0.914000000
H     1.568000000    -1.931000000    -0.321000000
C     0.427000000    -0.206000000    -0.187000000
H     0.381000000    -0.308000000     0.859000000
C    -0.282000000     0.704000000    -0.880000000
H    -0.799000000     1.518000000    -0.378000000
C    -0.228000000     0.819000000    -2.248000000
H    -0.808000000     1.604000000    -2.726000000
C     0.494000000    -0.088000000    -2.966000000
C     0.551000000     0.020000000    -4.438000000
O     0.007000000     0.898000000    -5.011000000
O     1.203000000    -0.757000000    -5.084000000
O    -1.334000000     2.270000000    -7.793000000
H    -1.471000000     2.818000000    -7.019000000
H    -2.133000000     1.748000000    -7.861000000
O    -1.096000000     3.340000000    -5.170000000
H    -0.394000000     3.850000000    -4.766000000
H    -0.829000000     2.428000000    -5.050000000
O    -2.586000000     0.529000000    -5.232000000
H    -1.639000000     0.594000000    -5.356000000
H    -2.696000000    -0.172000000    -4.590000000
O    -3.715000000    -1.504000000    -6.724000000
H    -3.084000000    -0.785000000    -6.703000000
H    -3.180000000    -2.294000000    -6.658000000
O     1.969000000     2.238000000    -6.281000000
H     1.426000000     1.819000000    -5.613000000
H     2.867000000     2.029000000    -6.027000000
O    -3.580000000     4.457000000    -6.292000000
H    -4.054000000     3.633000000    -6.180000000
H    -2.768000000     4.335000000    -5.799000000
O     1.845000000    -0.049000000   -10.319000000
H     2.471000000    -0.771000000   -10.266000000
H     1.190000000    -0.252000000    -9.651000000
O     0.688000000    -3.351000000    -4.960000000
H     1.462000000    -3.864000000    -5.191000000
H     1.034000000    -2.495000000    -4.706000000
O     6.163000000     2.003000000    -6.067000000
H     6.093000000     2.504000000    -6.879000000
H     5.803000000     1.143000000    -6.285000000
O     5.085000000    -0.316000000    -7.289000000
H     4.562000000    -0.943000000    -6.790000000
H     5.684000000    -0.858000000    -7.802000000
O    -4.671000000     1.961000000    -6.431000000
H    -4.627000000     1.516000000    -7.278000000
H    -4.128000000     1.427000000    -5.852000000
O     3.431000000    -1.882000000    -6.059000000
H     3.605000000    -2.554000000    -5.400000000
H     2.661000000    -1.418000000    -5.731000000
O     0.137000000    -0.231000000    -7.795000000
H     0.684000000    -0.454000000    -7.041000000
H    -0.220000000     0.632000000    -7.585000000
O    -1.263000000    -3.438000000    -6.610000000
H    -0.562000000    -3.464000000    -5.958000000
H    -0.869000000    -3.009000000    -7.369000000
O     0.992000000     4.131000000    -8.383000000
H     1.224000000     4.770000000    -7.709000000
H     0.951000000     3.296000000    -7.916000000
O     2.838000000    -2.281000000    -8.768000000
H     2.797000000    -2.129000000    -7.824000000
H     3.725000000    -2.606000000    -8.920000000
O     3.902000000     1.350000000    -9.120000000
H     4.137000000     0.601000000    -8.572000000
H     2.974000000     1.220000000    -9.318000000
O    -3.272000000     0.534000000    -8.710000000
H    -4.201000000     0.366000000    -8.872000000
H    -2.817000000     0.033000000    -9.387000000
O    -0.002000000    -2.278000000    -9.511000000
H     0.845000000    -2.696000000    -9.360000000
H    -0.019000000    -1.542000000    -8.900000000
