215
-1464.89019
C     0.009000000    -4.236000000    -2.424000000
H    -0.928000000    -4.225000000    -1.873000000
C     1.225000000    -4.192000000    -1.757000000
C     2.392000000    -4.177000000    -2.524000000
H     3.341000000    -4.173000000    -1.994000000
C     1.252000000    -4.092000000    -0.178000000
O     0.394000000    -5.034000000     0.493000000
H     0.934000000    -3.051000000    -0.020000000
O     2.626000000    -4.181000000     0.315000000
C     2.952000000    -3.216000000     1.255000000
C     3.777000000    -2.191000000     0.807000000
H     4.102000000    -2.200000000    -0.231000000
C     4.242000000    -1.188000000     1.648000000
O     4.948000000    -0.096000000     1.045000000
C     3.734000000    -1.114000000     2.942000000
C     4.055000000     0.032000000     3.896000000
H     4.047000000    -0.254000000     4.950000000
C     3.044000000     1.192000000     3.676000000
C     1.928000000     1.143000000     4.522000000
H     1.952000000     0.380000000     5.297000000
H     5.061000000     0.406000000     3.699000000
C     2.987000000    -2.191000000     3.457000000
H     2.538000000    -2.098000000     4.443000000
C     2.532000000    -3.231000000     2.599000000
C     1.631000000    -4.289000000     3.063000000
H     1.688000000    -4.395000000     4.148000000
H     1.960000000    -5.279000000     2.740000000
C     0.183000000    -3.959000000     2.663000000
C    -0.624000000    -3.252000000     3.555000000
H    -0.303000000    -2.898000000     4.531000000
C    -0.394000000    -4.497000000     1.451000000
C    -1.718000000    -4.230000000     1.127000000
H    -2.030000000    -4.580000000     0.146000000
C    -2.476000000    -3.409000000     1.946000000
O    -3.821000000    -3.095000000     1.541000000
C    -4.038000000    -1.722000000     1.119000000
C    -4.997000000    -1.508000000    -0.096000000
C    -5.158000000    -0.197000000    -0.588000000
H    -4.722000000     0.630000000    -0.034000000
C    -5.157000000    -2.565000000    -0.924000000
H    -4.947000000    -3.574000000    -0.578000000
O    -4.365000000    -0.897000000     2.209000000
H    -3.080000000    -1.321000000     0.756000000
C    -1.933000000    -2.990000000     3.185000000
C    -2.770000000    -2.300000000     4.165000000
H    -2.507000000    -2.604000000     5.180000000
H    -3.777000000    -2.713000000     4.073000000
C    -2.716000000    -0.831000000     3.935000000
C    -1.751000000    -0.100000000     4.619000000
H    -1.122000000    -0.619000000     5.337000000
C    -3.378000000    -0.173000000     2.904000000
C    -3.300000000     1.235000000     2.697000000
H    -3.914000000     1.794000000     1.995000000
C    -2.399000000     1.958000000     3.462000000
O    -2.166000000     3.284000000     3.051000000
C    -1.032000000     3.540000000     2.239000000
C    -1.395000000     4.608000000     1.230000000
C    -2.714000000     4.664000000     0.687000000
H    -3.441000000     3.956000000     1.077000000
C    -0.365000000     5.394000000     0.614000000
H     0.675000000     5.306000000     0.919000000
O     0.112000000     3.949000000     3.026000000
H    -0.651000000     2.684000000     1.662000000
C    -1.525000000     1.280000000     4.381000000
C    -0.415000000     1.944000000     5.115000000
H    -0.293000000     1.377000000     6.040000000
H    -0.817000000     2.920000000     5.394000000
C     0.876000000     2.079000000     4.288000000
C     1.054000000     3.067000000     3.330000000
C     2.261000000     3.082000000     2.548000000
H     2.372000000     3.794000000     1.734000000
C     3.213000000     2.126000000     2.690000000
O     4.189000000     2.010000000     1.738000000
C     4.086000000     1.029000000     0.733000000
H     3.075000000     0.629000000     0.566000000
C     4.488000000     1.578000000    -0.649000000
C     4.934000000     0.660000000    -1.689000000
H     5.219000000    -0.363000000    -1.453000000
C     4.272000000     2.887000000    -0.918000000
H     3.809000000     3.510000000    -0.157000000
C     4.589000000     3.365000000    -2.236000000
O     4.409000000     4.698000000    -2.486000000
C     5.011000000     2.496000000    -3.212000000
H     5.035000000     2.927000000    -4.210000000
C     5.267000000     1.127000000    -2.942000000
O     5.703000000     0.354000000    -3.978000000
C     5.729000000    -1.016000000    -3.962000000
C     4.711000000    -1.796000000    -4.419000000
H     3.920000000    -1.336000000    -5.007000000
C     6.812000000    -1.571000000    -3.286000000
H     7.641000000    -0.951000000    -2.955000000
C     6.817000000    -2.940000000    -3.092000000
H     7.628000000    -3.268000000    -2.446000000
C     5.764000000    -3.789000000    -3.494000000
H     5.710000000    -4.830000000    -3.187000000
C     4.637000000    -3.174000000    -4.088000000
O     3.574000000    -3.931000000    -4.567000000
C     2.356000000    -4.040000000    -3.877000000
C     1.123000000    -4.022000000    -4.552000000
H     1.136000000    -3.841000000    -5.624000000
C    -0.072000000    -4.215000000    -3.827000000
O    -1.253000000    -4.273000000    -4.496000000
C    -2.484000000    -4.750000000    -3.987000000
C    -3.495000000    -3.827000000    -3.578000000
H    -3.336000000    -2.756000000    -3.480000000
C    -2.809000000    -6.074000000    -4.027000000
H    -2.154000000    -6.825000000    -4.460000000
C    -4.077000000    -6.474000000    -3.680000000
H    -4.422000000    -7.505000000    -3.675000000
C    -5.046000000    -5.540000000    -3.260000000
H    -6.041000000    -5.810000000    -2.916000000
C    -4.774000000    -4.219000000    -3.262000000
O    -5.743000000    -3.282000000    -3.115000000
C    -5.666000000    -2.307000000    -2.230000000
C    -5.846000000    -1.031000000    -2.677000000
H    -6.172000000    -0.872000000    -3.701000000
C    -5.639000000     0.070000000    -1.852000000
O    -5.724000000     1.320000000    -2.320000000
C    -5.882000000     2.429000000    -1.563000000
C    -4.921000000     3.422000000    -1.555000000
H    -4.037000000     3.276000000    -2.170000000
C    -7.009000000     2.575000000    -0.779000000
H    -7.778000000     1.857000000    -1.055000000
C    -7.223000000     3.697000000    -0.003000000
H    -8.109000000     3.730000000     0.626000000
C    -6.328000000     4.778000000    -0.082000000
H    -6.434000000     5.727000000     0.437000000
C    -5.169000000     4.571000000    -0.810000000
O    -4.257000000     5.623000000    -0.911000000
C    -2.990000000     5.500000000    -0.360000000
C    -1.938000000     6.257000000    -0.964000000
H    -2.283000000     6.808000000    -1.835000000
C    -0.646000000     6.158000000    -0.481000000
O     0.325000000     6.799000000    -1.208000000
C     1.648000000     6.644000000    -1.020000000
C     2.279000000     7.218000000     0.071000000
H     1.618000000     7.767000000     0.736000000
C     3.602000000     6.889000000     0.358000000
H     3.993000000     7.367000000     1.252000000
C     4.344000000     6.077000000    -0.542000000
H     5.376000000     5.763000000    -0.410000000
C     3.700000000     5.503000000    -1.615000000
C     2.359000000     5.747000000    -1.863000000
H     1.907000000     5.098000000    -2.609000000
C     0.695000000    -0.540000000    -2.347000000
H     1.498000000    -0.769000000    -3.043000000
C     0.945000000    -0.544000000    -0.986000000
H     1.779000000    -1.156000000    -0.652000000
C    -0.061000000    -0.206000000    -0.074000000
H     0.052000000    -0.296000000     0.995000000
C    -1.267000000     0.265000000    -0.560000000
H    -2.083000000     0.457000000     0.132000000
C    -1.647000000     0.180000000    -1.939000000
H    -2.619000000     0.515000000    -2.291000000
C    -0.637000000    -0.239000000    -2.843000000
C    -0.869000000    -0.118000000    -4.331000000
O    -2.034000000    -0.068000000    -4.758000000
O     0.063000000    -0.112000000    -5.109000000
O    -2.590000000     5.550000000    -7.239000000
H    -2.735000000     6.493000000    -7.173000000
H    -2.102000000     5.326000000    -6.447000000
O    -0.838000000     4.580000000    -4.055000000
H    -0.444000000     4.352000000    -3.212000000
H    -0.709000000     3.802000000    -4.598000000
O    -4.472000000    -1.042000000    -5.993000000
H    -3.671000000    -0.546000000    -5.820000000
H    -5.116000000    -0.379000000    -6.241000000
O    -3.485000000     5.210000000    -4.061000000
H    -3.589000000     4.330000000    -4.424000000
H    -2.540000000     5.365000000    -4.078000000
O    -5.011000000     1.168000000    -7.850000000
H    -5.125000000     0.697000000    -8.676000000
H    -4.959000000     2.089000000    -8.105000000
O     0.701000000     2.792000000    -2.343000000
H     0.531000000     1.927000000    -1.970000000
H     1.293000000     2.625000000    -3.077000000
O    -3.527000000     2.676000000    -5.190000000
H    -3.005000000     3.020000000    -5.915000000
H    -3.096000000     1.854000000    -4.954000000
O    -6.340000000     2.703000000    -5.466000000
H    -6.439000000     2.952000000    -4.547000000
H    -5.395000000     2.710000000    -5.615000000
O    -1.581000000    -2.095000000    -7.219000000
H    -2.300000000    -2.720000000    -7.122000000
H    -1.320000000    -1.889000000    -6.321000000
O     2.040000000     2.317000000    -4.691000000
H     1.506000000     1.589000000    -5.009000000
H     2.642000000     2.505000000    -5.411000000
O     2.147000000    -0.229000000    -6.975000000
H     1.608000000    -0.017000000    -7.737000000
H     1.516000000    -0.377000000    -6.270000000
O    -1.824000000     0.676000000    -7.596000000
H    -1.610000000     0.008000000    -6.945000000
H    -2.749000000     0.528000000    -7.795000000
O     3.752000000     3.248000000    -6.729000000
H     3.901000000     2.970000000    -7.632000000
H     4.248000000     4.062000000    -6.644000000
O     0.540000000     0.043000000    -9.157000000
H     0.336000000    -0.044000000   -10.088000000
H    -0.287000000     0.309000000    -8.754000000
O     0.392000000    -3.720000000    -8.525000000
H    -0.166000000    -3.022000000    -8.184000000
H     1.285000000    -3.400000000    -8.393000000
O    -0.915000000     2.712000000    -6.116000000
H    -1.376000000     2.258000000    -6.821000000
H     0.012000000     2.608000000    -6.331000000
O    -5.957000000    -3.208000000    -5.880000000
H    -5.549000000    -2.467000000    -6.328000000
H    -5.600000000    -3.178000000    -4.993000000
O     3.026000000    -2.658000000    -8.163000000
H     3.079000000    -1.789000000    -7.765000000
H     2.837000000    -2.488000000    -9.085000000
O    -2.530000000    -2.166000000   -10.227000000
H    -1.833000000    -1.869000000   -10.812000000
H    -2.091000000    -2.316000000    -9.389000000
