215
-1468.64679
C    -0.298000000    -4.749000000    -1.824000000
H    -1.236000000    -4.469000000    -1.351000000
C     0.917000000    -4.616000000    -1.161000000
C     2.124000000    -4.759000000    -1.832000000
H     3.038000000    -4.607000000    -1.263000000
C     0.862000000    -4.266000000     0.356000000
O    -0.261000000    -4.963000000     1.038000000
H     0.578000000    -3.204000000     0.403000000
O     2.078000000    -4.620000000     1.047000000
C     2.600000000    -3.605000000     1.828000000
C     3.487000000    -2.767000000     1.221000000
H     3.775000000    -2.999000000     0.199000000
C     3.849000000    -1.605000000     1.851000000
O     4.651000000    -0.700000000     1.235000000
C     3.511000000    -1.358000000     3.206000000
C     3.917000000    -0.096000000     3.881000000
H     4.010000000    -0.241000000     4.959000000
C     3.026000000     1.089000000     3.525000000
C     2.000000000     1.487000000     4.414000000
H     1.780000000     0.932000000     5.322000000
H     4.911000000     0.180000000     3.522000000
C     2.591000000    -2.243000000     3.828000000
H     2.239000000    -2.011000000     4.830000000
C     2.157000000    -3.353000000     3.106000000
C     1.074000000    -4.270000000     3.681000000
H     1.065000000    -4.393000000     4.767000000
H     1.154000000    -5.306000000     3.344000000
C    -0.326000000    -3.750000000     3.230000000
C    -0.911000000    -2.698000000     3.943000000
H    -0.342000000    -2.205000000     4.727000000
C    -0.931000000    -4.158000000     1.987000000
C    -2.112000000    -3.571000000     1.604000000
H    -2.641000000    -3.849000000     0.696000000
C    -2.792000000    -2.659000000     2.455000000
O    -3.920000000    -2.079000000     1.941000000
C    -3.908000000    -0.705000000     1.563000000
C    -4.712000000    -0.539000000     0.273000000
C    -5.396000000     0.668000000     0.045000000
H    -5.494000000     1.488000000     0.751000000
C    -4.573000000    -1.544000000    -0.746000000
H    -3.825000000    -2.314000000    -0.576000000
O    -4.406000000     0.233000000     2.571000000
H    -2.849000000    -0.592000000     1.287000000
C    -2.172000000    -2.169000000     3.631000000
C    -2.869000000    -1.230000000     4.580000000
H    -2.465000000    -1.342000000     5.588000000
H    -3.864000000    -1.680000000     4.606000000
C    -2.675000000     0.229000000     4.212000000
C    -1.641000000     0.896000000     4.849000000
H    -0.911000000     0.486000000     5.543000000
C    -3.448000000     0.855000000     3.235000000
C    -3.232000000     2.216000000     3.009000000
H    -3.790000000     2.779000000     2.266000000
C    -2.079000000     2.781000000     3.524000000
O    -1.706000000     4.015000000     3.026000000
C    -0.691000000     3.993000000     1.968000000
C    -0.926000000     4.807000000     0.709000000
C    -2.223000000     5.175000000     0.298000000
H    -2.988000000     4.866000000     1.006000000
C     0.142000000     4.853000000    -0.278000000
H     1.167000000     4.599000000    -0.020000000
O     0.564000000     4.366000000     2.544000000
H    -0.553000000     2.982000000     1.557000000
C    -1.295000000     2.165000000     4.452000000
C    -0.043000000     2.806000000     5.030000000
H     0.177000000     2.443000000     6.036000000
H    -0.136000000     3.890000000     4.936000000
C     1.172000000     2.579000000     4.078000000
C     1.401000000     3.315000000     2.919000000
C     2.451000000     2.952000000     2.077000000
H     2.535000000     3.367000000     1.076000000
C     3.312000000     1.911000000     2.413000000
O     4.343000000     1.623000000     1.501000000
C     4.074000000     0.450000000     0.636000000
H     2.986000000     0.292000000     0.606000000
C     4.545000000     0.707000000    -0.754000000
C     4.685000000    -0.335000000    -1.626000000
H     4.580000000    -1.347000000    -1.243000000
C     4.657000000     2.019000000    -1.231000000
H     4.458000000     2.778000000    -0.479000000
C     5.134000000     2.288000000    -2.505000000
O     5.283000000     3.567000000    -2.916000000
C     5.362000000     1.166000000    -3.428000000
H     5.632000000     1.450000000    -4.442000000
C     5.164000000    -0.113000000    -2.922000000
O     5.446000000    -1.103000000    -3.854000000
C     5.470000000    -2.449000000    -3.517000000
C     4.321000000    -3.118000000    -3.620000000
H     3.418000000    -2.547000000    -3.820000000
C     6.733000000    -3.011000000    -3.312000000
H     7.618000000    -2.380000000    -3.305000000
C     6.769000000    -4.380000000    -3.023000000
H     7.709000000    -4.861000000    -2.762000000
C     5.629000000    -5.136000000    -3.253000000
H     5.681000000    -6.220000000    -3.185000000
C     4.390000000    -4.509000000    -3.558000000
O     3.284000000    -5.249000000    -3.767000000
C     2.126000000    -5.154000000    -3.169000000
C     0.940000000    -5.359000000    -3.763000000
H     1.050000000    -5.657000000    -4.802000000
C    -0.235000000    -5.172000000    -3.144000000
O    -1.365000000    -5.560000000    -3.884000000
C    -2.671000000    -5.130000000    -3.588000000
C    -3.050000000    -3.785000000    -3.382000000
H    -2.359000000    -2.995000000    -3.664000000
C    -3.715000000    -6.071000000    -3.545000000
H    -3.466000000    -7.110000000    -3.745000000
C    -5.046000000    -5.726000000    -3.257000000
H    -5.820000000    -6.487000000    -3.206000000
C    -5.398000000    -4.406000000    -3.116000000
H    -6.369000000    -4.068000000    -2.761000000
C    -4.410000000    -3.367000000    -3.232000000
O    -4.678000000    -2.049000000    -3.118000000
C    -5.049000000    -1.313000000    -1.988000000
C    -5.764000000    -0.125000000    -2.184000000
H    -6.154000000     0.012000000    -3.189000000
C    -5.962000000     0.858000000    -1.223000000
O    -6.713000000     1.967000000    -1.454000000
C    -6.391000000     3.302000000    -1.251000000
C    -5.167000000     3.865000000    -1.452000000
H    -4.328000000     3.266000000    -1.797000000
C    -7.488000000     4.091000000    -0.992000000
H    -8.450000000     3.592000000    -1.065000000
C    -7.432000000     5.446000000    -0.811000000
H    -8.313000000     5.985000000    -0.470000000
C    -6.089000000     5.998000000    -0.951000000
H    -5.873000000     7.058000000    -0.848000000
C    -4.955000000     5.219000000    -1.285000000
O    -3.710000000     5.831000000    -1.491000000
C    -2.451000000     5.519000000    -1.036000000
C    -1.438000000     5.568000000    -1.934000000
H    -1.667000000     5.726000000    -2.985000000
C    -0.138000000     5.237000000    -1.563000000
O     0.839000000     5.180000000    -2.485000000
C     2.144000000     5.354000000    -2.410000000
C     2.658000000     6.564000000    -2.000000000
H     1.934000000     7.362000000    -1.861000000
C     4.013000000     6.728000000    -1.726000000
H     4.430000000     7.614000000    -1.256000000
C     4.913000000     5.680000000    -2.000000000
H     5.987000000     5.654000000    -1.839000000
C     4.417000000     4.481000000    -2.516000000
C     3.026000000     4.300000000    -2.657000000
H     2.615000000     3.332000000    -2.935000000
C     1.124000000    -0.486000000    -1.933000000
H     1.726000000    -1.144000000    -2.555000000
C     1.053000000    -0.629000000    -0.534000000
H     1.654000000    -1.303000000     0.070000000
C     0.099000000     0.072000000     0.161000000
H     0.080000000    -0.019000000     1.219000000
C    -0.852000000     0.927000000    -0.511000000
H    -1.695000000     1.366000000     0.018000000
C    -0.720000000     1.088000000    -1.881000000
H    -1.516000000     1.650000000    -2.364000000
C     0.246000000     0.374000000    -2.638000000
C     0.274000000     0.528000000    -4.119000000
O    -0.683000000     1.069000000    -4.622000000
O     1.260000000     0.311000000    -4.814000000
O     3.869000000     1.684000000    -8.070000000
H     4.470000000     1.249000000    -7.464000000
H     4.232000000     2.563000000    -8.177000000
O    -2.692000000     3.602000000    -8.683000000
H    -1.963000000     3.482000000    -8.074000000
H    -2.621000000     4.515000000    -8.964000000
O    -1.083000000     0.038000000    -8.325000000
H    -1.962000000     0.397000000    -8.448000000
H    -0.497000000     0.733000000    -8.625000000
O    -0.754000000    -4.370000000    -6.478000000
H    -1.300000000    -3.594000000    -6.606000000
H    -1.375000000    -5.066000000    -6.261000000
O    -2.849000000    -0.464000000    -4.757000000
H    -2.092000000     0.120000000    -4.728000000
H    -3.325000000    -0.280000000    -3.947000000
O    -2.852000000     2.809000000    -4.112000000
H    -2.138000000     2.191000000    -3.955000000
H    -2.532000000     3.370000000    -4.818000000
O     2.201000000     4.746000000    -6.878000000
H     2.203000000     5.355000000    -6.139000000
H     2.405000000     3.896000000    -6.489000000
O     1.184000000    -1.308000000    -6.929000000
H     0.489000000    -1.075000000    -7.544000000
H     1.088000000    -0.683000000    -6.210000000
O     6.072000000     0.251000000    -7.057000000
H     6.784000000     0.275000000    -6.418000000
H     5.564000000    -0.525000000    -6.822000000
O     2.933000000     2.342000000    -5.601000000
H     2.287000000     1.811000000    -5.135000000
H     3.271000000     1.764000000    -6.284000000
O    -2.230000000    -2.073000000    -6.798000000
H    -2.182000000    -1.764000000    -5.893000000
H    -1.655000000    -1.482000000    -7.284000000
O     3.788000000    -1.408000000    -6.213000000
H     3.694000000    -1.127000000    -5.302000000
H     2.972000000    -1.134000000    -6.633000000
O    -5.181000000    -1.176000000    -6.505000000
H    -5.134000000    -0.363000000    -7.006000000
H    -4.272000000    -1.365000000    -6.270000000
O    -0.765000000     2.961000000    -6.635000000
H     0.174000000     2.932000000    -6.820000000
H    -0.927000000     2.188000000    -6.094000000
O    -5.067000000     1.876000000    -5.716000000
H    -4.376000000     2.105000000    -5.094000000
H    -4.622000000     1.831000000    -6.563000000
O     1.509000000    -4.112000000    -7.816000000
H     1.647000000    -3.233000000    -7.464000000
H     0.789000000    -4.468000000    -7.295000000
O    -3.552000000     1.185000000    -8.333000000
H    -3.480000000     2.133000000    -8.227000000
H    -3.600000000     1.052000000    -9.280000000
O    -1.913000000     5.184000000    -5.620000000
H    -1.986000000     5.859000000    -6.294000000
H    -1.158000000     4.660000000    -5.886000000
O     0.737000000     2.342000000    -9.078000000
H     1.500000000     1.838000000    -8.794000000
H     1.102000000     3.056000000    -9.600000000
