215
-1482.20274
C    -0.305000000    -4.807000000    -2.835000000
H    -1.193000000    -5.050000000    -2.256000000
C     0.836000000    -4.441000000    -2.119000000
C     1.972000000    -4.026000000    -2.881000000
H     2.798000000    -3.602000000    -2.316000000
C     0.869000000    -4.233000000    -0.609000000
O    -0.081000000    -5.122000000     0.071000000
H     0.393000000    -3.255000000    -0.448000000
O     2.221000000    -4.317000000    -0.055000000
C     2.650000000    -3.460000000     0.886000000
C     3.501000000    -2.433000000     0.465000000
H     3.754000000    -2.425000000    -0.592000000
C     3.882000000    -1.513000000     1.424000000
O     4.631000000    -0.471000000     0.951000000
C     3.535000000    -1.638000000     2.750000000
C     4.101000000    -0.624000000     3.821000000
H     4.068000000    -1.111000000     4.799000000
C     3.334000000     0.655000000     3.844000000
C     2.200000000     0.712000000     4.686000000
H     1.996000000    -0.145000000     5.323000000
H     5.119000000    -0.325000000     3.567000000
C     2.711000000    -2.645000000     3.204000000
H     2.481000000    -2.697000000     4.265000000
C     2.280000000    -3.573000000     2.225000000
C     1.293000000    -4.728000000     2.619000000
H     1.393000000    -4.863000000     3.698000000
H     1.433000000    -5.645000000     2.042000000
C    -0.177000000    -4.335000000     2.314000000
C    -0.847000000    -3.602000000     3.270000000
H    -0.423000000    -3.397000000     4.250000000
C    -0.806000000    -4.610000000     1.104000000
C    -2.107000000    -4.208000000     0.885000000
H    -2.497000000    -4.385000000    -0.115000000
C    -2.797000000    -3.515000000     1.797000000
O    -3.949000000    -2.847000000     1.439000000
C    -3.797000000    -1.433000000     1.180000000
C    -4.548000000    -1.101000000    -0.067000000
C    -5.220000000     0.070000000    -0.128000000
H    -5.218000000     0.782000000     0.693000000
C    -4.556000000    -1.955000000    -1.123000000
H    -3.876000000    -2.802000000    -1.178000000
O    -4.256000000    -0.679000000     2.315000000
H    -2.712000000    -1.284000000     1.071000000
C    -2.162000000    -3.228000000     3.019000000
C    -2.780000000    -2.365000000     4.030000000
H    -2.419000000    -2.589000000     5.036000000
H    -3.867000000    -2.451000000     3.971000000
C    -2.481000000    -0.914000000     3.885000000
C    -1.505000000    -0.298000000     4.708000000
H    -0.830000000    -0.840000000     5.365000000
C    -3.231000000    -0.070000000     3.021000000
C    -2.993000000     1.306000000     2.833000000
H    -3.538000000     1.940000000     2.138000000
C    -1.877000000     1.808000000     3.509000000
O    -1.628000000     3.155000000     3.233000000
C    -0.451000000     3.449000000     2.487000000
C    -0.836000000     4.304000000     1.264000000
C    -2.110000000     4.242000000     0.657000000
H    -2.815000000     3.471000000     0.957000000
C     0.036000000     5.261000000     0.815000000
H     1.041000000     5.220000000     1.229000000
O     0.663000000     3.802000000     3.312000000
H    -0.052000000     2.590000000     1.926000000
C    -1.198000000     1.059000000     4.464000000
C    -0.007000000     1.671000000     5.239000000
H     0.067000000     1.083000000     6.156000000
H    -0.264000000     2.705000000     5.480000000
C     1.314000000     1.785000000     4.456000000
C     1.564000000     2.804000000     3.540000000
C     2.675000000     2.716000000     2.722000000
H     2.901000000     3.518000000     2.025000000
C     3.498000000     1.641000000     2.832000000
O     4.513000000     1.564000000     1.923000000
C     4.120000000     0.837000000     0.795000000
H     3.028000000     0.726000000     0.729000000
C     4.518000000     1.519000000    -0.504000000
C     4.757000000     0.734000000    -1.680000000
H     4.827000000    -0.345000000    -1.572000000
C     4.436000000     2.903000000    -0.654000000
H     4.082000000     3.544000000     0.150000000
C     4.755000000     3.479000000    -1.910000000
O     4.695000000     4.849000000    -2.169000000
C     4.923000000     2.702000000    -3.077000000
H     5.033000000     3.154000000    -4.059000000
C     4.976000000     1.318000000    -2.969000000
O     5.135000000     0.528000000    -4.138000000
C     5.098000000    -0.837000000    -4.209000000
C     4.005000000    -1.487000000    -4.708000000
H     3.249000000    -0.834000000    -5.137000000
C     6.275000000    -1.548000000    -3.749000000
H     7.151000000    -0.967000000    -3.469000000
C     6.241000000    -2.948000000    -3.801000000
H     7.045000000    -3.534000000    -3.365000000
C     5.067000000    -3.640000000    -4.174000000
H     5.094000000    -4.726000000    -4.214000000
C     3.976000000    -2.879000000    -4.642000000
O     2.875000000    -3.576000000    -5.106000000
C     1.907000000    -4.079000000    -4.276000000
C     0.708000000    -4.455000000    -4.932000000
H     0.635000000    -4.383000000    -6.014000000
C    -0.395000000    -4.767000000    -4.201000000
O    -1.560000000    -5.077000000    -4.998000000
C    -2.767000000    -4.902000000    -4.435000000
C    -3.456000000    -3.677000000    -4.312000000
H    -3.015000000    -2.831000000    -4.833000000
C    -3.329000000    -6.009000000    -3.817000000
H    -2.894000000    -6.988000000    -3.996000000
C    -4.546000000    -5.899000000    -3.161000000
H    -4.918000000    -6.876000000    -2.861000000
C    -5.236000000    -4.736000000    -3.077000000
H    -6.116000000    -4.641000000    -2.446000000
C    -4.618000000    -3.574000000    -3.544000000
O    -5.321000000    -2.394000000    -3.454000000
C    -5.304000000    -1.611000000    -2.273000000
C    -6.034000000    -0.430000000    -2.322000000
H    -6.652000000    -0.213000000    -3.190000000
C    -5.954000000     0.455000000    -1.224000000
O    -6.753000000     1.570000000    -1.265000000
C    -6.393000000     2.702000000    -0.680000000
C    -5.175000000     3.239000000    -1.031000000
H    -4.470000000     2.752000000    -1.699000000
C    -7.197000000     3.297000000     0.335000000
H    -8.183000000     2.890000000     0.545000000
C    -6.772000000     4.480000000     0.949000000
H    -7.494000000     4.949000000     1.612000000
C    -5.536000000     5.085000000     0.488000000
H    -5.225000000     6.000000000     0.985000000
C    -4.751000000     4.426000000    -0.487000000
O    -3.651000000     5.034000000    -1.051000000
C    -2.461000000     5.114000000    -0.361000000
C    -1.547000000     6.052000000    -0.883000000
H    -1.799000000     6.531000000    -1.826000000
C    -0.300000000     6.094000000    -0.253000000
O     0.674000000     6.863000000    -0.847000000
C     2.048000000     6.778000000    -0.692000000
C     2.665000000     7.521000000     0.306000000
H     2.176000000     8.221000000     0.979000000
C     4.077000000     7.425000000     0.352000000
H     4.633000000     7.871000000     1.172000000
C     4.783000000     6.534000000    -0.488000000
H     5.862000000     6.419000000    -0.429000000
C     4.093000000     5.766000000    -1.405000000
C     2.724000000     5.956000000    -1.569000000
H     2.168000000     5.309000000    -2.243000000
C    -0.344000000    -0.687000000    -2.784000000
H     0.217000000    -1.202000000    -3.559000000
C     0.164000000    -0.570000000    -1.476000000
H     1.114000000    -1.041000000    -1.235000000
C    -0.516000000     0.044000000    -0.451000000
H    -0.099000000     0.134000000     0.615000000
C    -1.823000000     0.513000000    -0.725000000
H    -2.465000000     1.011000000    -0.003000000
C    -2.227000000     0.577000000    -2.059000000
H    -3.196000000     1.027000000    -2.258000000
C    -1.529000000    -0.049000000    -3.110000000
C    -2.110000000    -0.107000000    -4.501000000
O    -3.092000000     0.597000000    -4.707000000
O    -1.653000000    -0.813000000    -5.409000000
O    -1.379000000    -4.588000000    -7.890000000
H    -1.482000000    -5.291000000    -7.249000000
H    -0.574000000    -4.807000000    -8.359000000
O    -1.151000000     5.082000000    -4.008000000
H    -1.056000000     4.417000000    -3.326000000
H    -0.578000000     4.783000000    -4.715000000
O    -5.439000000     0.154000000    -5.895000000
H    -4.525000000     0.324000000    -5.669000000
H    -5.790000000    -0.315000000    -5.138000000
O     0.274000000     4.335000000    -6.173000000
H     0.121000000     3.391000000    -6.213000000
H    -0.154000000     4.681000000    -6.956000000
O    -3.326000000     0.877000000    -7.665000000
H    -3.230000000    -0.071000000    -7.756000000
H    -3.459000000     1.015000000    -6.727000000
O    -0.603000000     3.091000000    -2.272000000
H     0.284000000     2.755000000    -2.399000000
H    -1.029000000     2.438000000    -1.717000000
O     1.975000000     1.362000000    -5.888000000
H     1.110000000     1.678000000    -6.149000000
H     2.019000000     0.470000000    -6.234000000
O    -3.287000000     3.255000000    -5.471000000
H    -2.471000000     3.715000000    -5.669000000
H    -3.007000000     2.411000000    -5.118000000
O    -2.931000000    -2.094000000    -7.309000000
H    -2.213000000    -2.693000000    -7.511000000
H    -2.583000000    -1.525000000    -6.623000000
O     1.802000000     2.088000000    -3.045000000
H     2.653000000     2.171000000    -2.616000000
H     2.013000000     1.911000000    -3.962000000
O    -5.695000000    -1.881000000    -7.800000000
H    -4.775000000    -2.100000000    -7.648000000
H    -5.867000000    -1.148000000    -7.209000000
O     0.595000000    -1.701000000    -6.896000000
H     0.083000000    -1.732000000    -7.704000000
H    -0.056000000    -1.582000000    -6.205000000
O    -0.686000000     1.819000000    -6.599000000
H    -1.066000000     1.924000000    -7.472000000
H    -1.066000000     1.003000000    -6.271000000
O    -5.399000000     4.805000000    -7.264000000
H    -5.465000000     5.553000000    -6.670000000
H    -5.458000000     4.040000000    -6.692000000
O    -6.054000000     2.860000000    -5.238000000
H    -5.191000000     2.977000000    -4.843000000
H    -6.000000000     2.016000000    -5.687000000
O    -0.303000000     1.057000000    -9.455000000
H    -1.080000000     1.067000000   -10.014000000
H    -0.185000000     0.135000000    -9.225000000
O    -0.724000000    -1.561000000    -9.423000000
H    -0.410000000    -1.548000000   -10.327000000
H    -1.678000000    -1.559000000    -9.500000000
O    -7.259000000    -3.685000000    -5.386000000
H    -7.338000000    -4.635000000    -5.471000000
H    -6.471000000    -3.555000000    -4.859000000
O    -2.877000000     1.236000000   -10.318000000
H    -2.932000000     1.064000000    -9.378000000
H    -2.868000000     2.191000000   -10.386000000
