215
-1476.27189
C     0.436000000    -5.459000000    -1.443000000
H    -0.549000000    -5.455000000    -0.984000000
C     1.529000000    -4.861000000    -0.828000000
C     2.733000000    -4.678000000    -1.557000000
H     3.541000000    -4.104000000    -1.111000000
C     1.332000000    -4.288000000     0.587000000
O     0.191000000    -4.879000000     1.234000000
H     1.055000000    -3.231000000     0.457000000
O     2.520000000    -4.409000000     1.331000000
C     2.792000000    -3.225000000     2.019000000
C     3.577000000    -2.274000000     1.410000000
H     3.963000000    -2.535000000     0.428000000
C     3.736000000    -1.032000000     2.020000000
O     4.416000000    -0.060000000     1.339000000
C     3.361000000    -0.791000000     3.294000000
C     3.747000000     0.477000000     4.003000000
H     3.707000000     0.276000000     5.076000000
C     2.782000000     1.638000000     3.808000000
C     1.534000000     1.715000000     4.450000000
H     1.372000000     1.077000000     5.315000000
H     4.767000000     0.766000000     3.741000000
C     2.665000000    -1.817000000     3.975000000
H     2.219000000    -1.620000000     4.947000000
C     2.285000000    -2.966000000     3.292000000
C     1.260000000    -3.894000000     3.811000000
H     1.192000000    -3.859000000     4.900000000
H     1.549000000    -4.903000000     3.510000000
C    -0.146000000    -3.631000000     3.331000000
C    -1.078000000    -2.873000000     4.121000000
H    -0.828000000    -2.578000000     5.137000000
C    -0.588000000    -4.175000000     2.073000000
C    -1.790000000    -3.757000000     1.590000000
H    -2.102000000    -4.035000000     0.586000000
C    -2.677000000    -2.974000000     2.381000000
O    -3.771000000    -2.511000000     1.737000000
C    -3.763000000    -1.184000000     1.143000000
C    -4.512000000    -1.252000000    -0.228000000
C    -5.305000000    -0.146000000    -0.607000000
H    -5.579000000     0.623000000     0.111000000
C    -4.096000000    -2.228000000    -1.137000000
H    -3.399000000    -2.970000000    -0.755000000
O    -4.387000000    -0.290000000     2.065000000
H    -2.739000000    -0.979000000     0.798000000
C    -2.362000000    -2.580000000     3.673000000
C    -3.242000000    -1.643000000     4.426000000
H    -3.110000000    -1.765000000     5.503000000
H    -4.282000000    -1.890000000     4.200000000
C    -2.986000000    -0.138000000     4.027000000
C    -2.031000000     0.682000000     4.693000000
H    -1.435000000     0.111000000     5.401000000
C    -3.589000000     0.411000000     2.914000000
C    -3.433000000     1.749000000     2.572000000
H    -3.812000000     2.218000000     1.667000000
C    -2.532000000     2.559000000     3.248000000
O    -2.214000000     3.737000000     2.605000000
C    -1.160000000     3.798000000     1.687000000
C    -1.513000000     4.550000000     0.410000000
C    -2.838000000     4.766000000     0.121000000
H    -3.694000000     4.519000000     0.745000000
C    -0.467000000     4.808000000    -0.528000000
H     0.537000000     4.419000000    -0.380000000
O    -0.085000000     4.426000000     2.478000000
H    -1.004000000     2.765000000     1.343000000
C    -1.779000000     2.029000000     4.316000000
C    -0.651000000     2.825000000     4.885000000
H    -0.503000000     2.570000000     5.937000000
H    -0.932000000     3.876000000     4.973000000
C     0.613000000     2.726000000     4.092000000
C     0.839000000     3.541000000     2.980000000
C     2.061000000     3.385000000     2.262000000
H     2.109000000     4.004000000     1.370000000
C     3.010000000     2.464000000     2.698000000
O     4.059000000     2.213000000     1.855000000
C     3.839000000     1.184000000     0.850000000
H     2.761000000     0.987000000     0.747000000
C     4.324000000     1.567000000    -0.541000000
C     4.626000000     0.519000000    -1.434000000
H     4.578000000    -0.515000000    -1.101000000
C     4.364000000     2.866000000    -0.947000000
H     3.985000000     3.684000000    -0.340000000
C     4.830000000     3.136000000    -2.260000000
O     4.925000000     4.384000000    -2.724000000
C     5.328000000     2.113000000    -3.092000000
H     5.924000000     2.365000000    -3.965000000
C     5.085000000     0.827000000    -2.674000000
O     5.445000000    -0.251000000    -3.444000000
C     5.642000000    -1.561000000    -3.139000000
C     4.653000000    -2.508000000    -3.459000000
H     3.666000000    -2.303000000    -3.864000000
C     6.860000000    -1.945000000    -2.533000000
H     7.542000000    -1.168000000    -2.196000000
C     7.210000000    -3.243000000    -2.470000000
H     8.241000000    -3.458000000    -2.201000000
C     6.323000000    -4.220000000    -2.936000000
H     6.630000000    -5.262000000    -2.973000000
C     4.998000000    -3.852000000    -3.248000000
O     4.047000000    -4.838000000    -3.600000000
C     2.857000000    -5.078000000    -2.896000000
C     1.744000000    -5.558000000    -3.484000000
H     1.691000000    -5.784000000    -4.546000000
C     0.540000000    -5.688000000    -2.767000000
O    -0.538000000    -6.243000000    -3.381000000
C    -1.857000000    -5.892000000    -3.190000000
C    -2.172000000    -4.575000000    -3.049000000
H    -1.487000000    -3.733000000    -2.989000000
C    -2.795000000    -6.907000000    -3.291000000
H    -2.483000000    -7.927000000    -3.500000000
C    -4.134000000    -6.590000000    -3.397000000
H    -4.852000000    -7.401000000    -3.493000000
C    -4.490000000    -5.260000000    -3.331000000
H    -5.544000000    -4.996000000    -3.367000000
C    -3.509000000    -4.268000000    -3.168000000
O    -3.918000000    -2.928000000    -3.465000000
C    -4.378000000    -2.023000000    -2.475000000
C    -5.117000000    -0.926000000    -2.903000000
H    -5.179000000    -0.751000000    -3.974000000
C    -5.581000000     0.023000000    -1.950000000
O    -6.274000000     1.147000000    -2.414000000
C    -6.320000000     2.365000000    -1.730000000
C    -5.319000000     3.317000000    -1.969000000
H    -4.501000000     3.112000000    -2.655000000
C    -7.422000000     2.702000000    -0.943000000
H    -8.178000000     1.935000000    -0.797000000
C    -7.448000000     3.901000000    -0.244000000
H    -8.303000000     4.219000000     0.348000000
C    -6.475000000     4.859000000    -0.465000000
H    -6.416000000     5.829000000     0.021000000
C    -5.394000000     4.514000000    -1.310000000
O    -4.392000000     5.446000000    -1.628000000
C    -3.117000000     5.297000000    -1.194000000
C    -2.097000000     5.707000000    -2.042000000
H    -2.389000000     6.056000000    -3.030000000
C    -0.764000000     5.467000000    -1.725000000
O     0.204000000     5.418000000    -2.704000000
C     1.482000000     5.881000000    -2.555000000
C     1.866000000     7.278000000    -2.476000000
H     1.177000000     8.111000000    -2.362000000
C     3.189000000     7.569000000    -2.496000000
H     3.645000000     8.550000000    -2.392000000
C     4.190000000     6.594000000    -2.496000000
H     5.252000000     6.826000000    -2.482000000
C     3.840000000     5.285000000    -2.513000000
C     2.514000000     4.907000000    -2.469000000
H     2.262000000     3.870000000    -2.676000000
C     0.957000000     0.234000000    -2.174000000
H     1.861000000     0.128000000    -2.768000000
C     0.991000000    -0.138000000    -0.839000000
H     1.958000000    -0.500000000    -0.499000000
C    -0.047000000     0.108000000    -0.033000000
H     0.010000000    -0.188000000     0.953000000
C    -1.144000000     0.740000000    -0.513000000
H    -1.963000000     1.096000000     0.106000000
C    -1.216000000     1.215000000    -1.742000000
H    -2.118000000     1.702000000    -2.105000000
C    -0.208000000     0.887000000    -2.671000000
C    -0.360000000     1.285000000    -4.105000000
O    -1.390000000     1.798000000    -4.494000000
O     0.528000000     1.011000000    -4.924000000
O     0.228000000    -3.361000000    -8.380000000
H     0.071000000    -2.629000000    -8.977000000
H     0.319000000    -4.122000000    -8.953000000
O     1.195000000     3.700000000    -8.325000000
H     0.804000000     3.836000000    -7.462000000
H     1.762000000     4.460000000    -8.454000000
O    -5.995000000     2.839000000    -5.308000000
H    -6.164000000     2.086000000    -4.741000000
H    -5.057000000     2.794000000    -5.493000000
O     0.403000000    -0.600000000    -9.684000000
H    -0.477000000    -0.312000000    -9.925000000
H     0.757000000     0.123000000    -9.166000000
O    -0.872000000    -4.770000000    -6.428000000
H    -0.980000000    -4.024000000    -5.837000000
H    -0.585000000    -4.381000000    -7.254000000
O    -2.576000000     0.191000000    -6.605000000
H    -3.024000000     1.015000000    -6.416000000
H    -1.670000000     0.343000000    -6.336000000
O    -3.335000000     2.788000000    -5.882000000
H    -2.551000000     2.514000000    -5.407000000
H    -3.070000000     3.584000000    -6.343000000
O     3.873000000     4.919000000    -5.462000000
H     4.774000000     4.643000000    -5.628000000
H     3.393000000     4.101000000    -5.331000000
O     1.071000000    -1.690000000    -4.689000000
H     0.206000000    -2.097000000    -4.736000000
H     0.922000000    -0.780000000    -4.947000000
O     2.991000000     1.966000000    -5.094000000
H     2.182000000     1.552000000    -4.794000000
H     3.682000000     1.528000000    -4.597000000
O    -1.583000000    -2.398000000    -5.263000000
H    -2.341000000    -2.343000000    -4.681000000
H    -1.791000000    -1.803000000    -5.983000000
O     4.842000000     2.042000000    -7.175000000
H     4.990000000     2.985000000    -7.242000000
H     3.928000000     1.962000000    -6.902000000
O     3.433000000    -0.399000000    -8.683000000
H     2.613000000    -0.167000000    -8.247000000
H     4.085000000     0.183000000    -8.292000000
O    -4.016000000    -1.492000000    -8.256000000
H    -3.304000000    -1.130000000    -7.729000000
H    -3.783000000    -2.413000000    -8.373000000
O    -0.403000000     3.941000000    -5.719000000
H     0.065000000     4.446000000    -5.054000000
H    -0.609000000     3.111000000    -5.289000000
O     2.587000000    -3.616000000    -6.389000000
H     1.813000000    -3.463000000    -6.930000000
H     2.424000000    -3.114000000    -5.590000000
O    -2.183000000     1.042000000    -9.616000000
H    -2.661000000     0.337000000   -10.053000000
H    -2.471000000     0.998000000    -8.704000000
O    -2.452000000     4.982000000    -6.913000000
H    -2.612000000     5.447000000    -7.734000000
H    -1.548000000     5.200000000    -6.686000000
O     1.130000000     0.856000000    -7.505000000
H     1.152000000     1.811000000    -7.578000000
H     0.807000000     0.692000000    -6.619000000
