215
-1449.14970
C    -1.217000000    -5.182000000    -0.996000000
H    -1.833000000    -5.238000000    -0.102000000
C     0.111000000    -4.890000000    -0.891000000
C     0.923000000    -4.910000000    -2.059000000
H     1.980000000    -4.659000000    -2.054000000
C     0.686000000    -4.326000000     0.357000000
O     0.007000000    -4.854000000     1.520000000
H     0.420000000    -3.260000000     0.308000000
O     2.128000000    -4.504000000     0.428000000
C     2.917000000    -3.535000000     1.038000000
C     3.477000000    -2.585000000     0.168000000
H     3.529000000    -3.000000000    -0.835000000
C     4.142000000    -1.416000000     0.597000000
O     4.646000000    -0.591000000    -0.385000000
C     4.264000000    -1.175000000     1.938000000
C     5.076000000    -0.009000000     2.460000000
H     5.404000000    -0.165000000     3.490000000
C     4.202000000     1.268000000     2.404000000
C     3.401000000     1.583000000     3.518000000
H     3.520000000     0.947000000     4.392000000
H     5.953000000     0.140000000     1.827000000
C     3.594000000    -2.042000000     2.838000000
H     3.782000000    -1.833000000     3.888000000
C     2.910000000    -3.211000000     2.406000000
C     2.097000000    -3.996000000     3.390000000
H     2.489000000    -3.842000000     4.397000000
H     1.992000000    -5.064000000     3.190000000
C     0.627000000    -3.475000000     3.418000000
C     0.255000000    -2.599000000     4.434000000
H     1.052000000    -2.136000000     5.011000000
C    -0.363000000    -3.952000000     2.536000000
C    -1.657000000    -3.433000000     2.566000000
H    -2.349000000    -3.860000000     1.845000000
C    -1.985000000    -2.441000000     3.491000000
O    -3.283000000    -1.882000000     3.485000000
C    -3.442000000    -0.646000000     2.788000000
C    -4.582000000    -0.601000000     1.759000000
C    -5.072000000     0.634000000     1.388000000
H    -4.645000000     1.502000000     1.882000000
C    -5.074000000    -1.815000000     1.214000000
H    -4.511000000    -2.712000000     1.457000000
O    -3.480000000     0.343000000     3.809000000
H    -2.500000000    -0.539000000     2.230000000
C    -1.064000000    -2.047000000     4.448000000
C    -1.450000000    -0.930000000     5.382000000
H    -0.832000000    -0.990000000     6.280000000
H    -2.497000000    -1.050000000     5.669000000
C    -1.260000000     0.412000000     4.763000000
C    -0.010000000     1.056000000     4.829000000
H     0.855000000     0.652000000     5.349000000
C    -2.290000000     1.044000000     3.981000000
C    -2.141000000     2.295000000     3.399000000
H    -3.016000000     2.732000000     2.925000000
C    -0.885000000     2.893000000     3.473000000
O    -0.684000000     4.079000000     2.756000000
C     0.309000000     3.921000000     1.759000000
C    -0.166000000     4.620000000     0.438000000
C    -1.288000000     4.146000000    -0.137000000
H    -1.950000000     3.454000000     0.376000000
C     0.571000000     5.567000000    -0.247000000
H     1.497000000     5.946000000     0.179000000
O     1.557000000     4.434000000     2.128000000
H     0.367000000     2.852000000     1.508000000
C     0.164000000     2.318000000     4.214000000
C     1.441000000     2.976000000     4.489000000
H     1.786000000     2.539000000     5.428000000
H     1.362000000     4.054000000     4.644000000
C     2.509000000     2.640000000     3.432000000
C     2.473000000     3.397000000     2.234000000
C     3.386000000     3.195000000     1.171000000
H     3.420000000     3.853000000     0.307000000
C     4.207000000     2.113000000     1.286000000
O     4.799000000     1.743000000     0.076000000
C     4.013000000     0.658000000    -0.650000000
H     3.032000000     0.547000000    -0.165000000
C     3.859000000     0.864000000    -2.145000000
C     3.811000000    -0.226000000    -3.028000000
H     3.850000000    -1.251000000    -2.669000000
C     3.916000000     2.150000000    -2.717000000
H     4.081000000     2.911000000    -1.959000000
C     3.595000000     2.381000000    -4.095000000
O     3.595000000     3.561000000    -4.766000000
C     3.382000000     1.246000000    -4.936000000
H     3.150000000     1.498000000    -5.968000000
C     3.611000000     0.004000000    -4.462000000
O     3.385000000    -1.100000000    -5.363000000
C     3.439000000    -2.462000000    -4.938000000
C     2.244000000    -3.192000000    -4.939000000
H     1.289000000    -2.806000000    -5.286000000
C     4.607000000    -3.054000000    -4.483000000
H     5.537000000    -2.503000000    -4.371000000
C     4.594000000    -4.410000000    -4.059000000
H     5.467000000    -4.905000000    -3.641000000
C     3.405000000    -5.161000000    -4.244000000
H     3.437000000    -6.196000000    -3.911000000
C     2.200000000    -4.543000000    -4.627000000
O     0.987000000    -5.176000000    -4.500000000
C     0.342000000    -5.173000000    -3.294000000
C    -1.003000000    -5.517000000    -3.363000000
H    -1.449000000    -5.896000000    -4.280000000
C    -1.841000000    -5.466000000    -2.236000000
O    -3.263000000    -5.589000000    -2.358000000
C    -4.160000000    -5.386000000    -1.377000000
C    -4.726000000    -4.173000000    -1.278000000
H    -4.459000000    -3.394000000    -1.987000000
C    -4.672000000    -6.418000000    -0.622000000
H    -4.226000000    -7.409000000    -0.579000000
C    -5.702000000    -6.286000000     0.255000000
H    -6.112000000    -7.127000000     0.807000000
C    -6.230000000    -5.006000000     0.372000000
H    -7.059000000    -4.851000000     1.059000000
C    -5.837000000    -3.970000000    -0.449000000
O    -6.501000000    -2.743000000    -0.521000000
C    -6.136000000    -1.707000000     0.306000000
C    -6.618000000    -0.426000000    -0.030000000
H    -7.309000000    -0.259000000    -0.851000000
C    -6.063000000     0.720000000     0.504000000
O    -6.612000000     1.995000000     0.249000000
C    -5.966000000     3.123000000    -0.334000000
C    -4.709000000     3.009000000    -0.947000000
H    -4.286000000     2.010000000    -0.999000000
C    -6.589000000     4.374000000    -0.164000000
H    -7.458000000     4.447000000     0.485000000
C    -5.982000000     5.556000000    -0.695000000
H    -6.421000000     6.540000000    -0.553000000
C    -4.729000000     5.394000000    -1.284000000
H    -4.194000000     6.304000000    -1.542000000
C    -4.062000000     4.146000000    -1.400000000
O    -2.830000000     3.925000000    -1.924000000
C    -1.688000000     4.456000000    -1.381000000
C    -0.863000000     5.363000000    -2.081000000
H    -1.007000000     5.622000000    -3.127000000
C     0.206000000     5.990000000    -1.504000000
O     0.994000000     6.845000000    -2.224000000
C     2.048000000     6.371000000    -2.883000000
C     3.039000000     7.313000000    -3.041000000
H     2.841000000     8.327000000    -2.705000000
C     4.223000000     6.981000000    -3.688000000
H     4.912000000     7.765000000    -3.990000000
C     4.420000000     5.745000000    -4.234000000
H     5.337000000     5.583000000    -4.794000000
C     3.421000000     4.765000000    -4.075000000
C     2.260000000     5.067000000    -3.302000000
H     1.509000000     4.309000000    -3.100000000
C    -0.484000000    -1.706000000    -2.536000000
H     0.021000000    -2.391000000    -3.212000000
C     0.114000000    -1.461000000    -1.317000000
H     1.079000000    -1.929000000    -1.138000000
C    -0.492000000    -0.552000000    -0.405000000
H    -0.143000000    -0.364000000     0.619000000
C    -1.759000000    -0.132000000    -0.683000000
H    -2.228000000     0.521000000     0.049000000
C    -2.370000000    -0.398000000    -1.897000000
H    -3.412000000    -0.110000000    -2.008000000
C    -1.738000000    -1.269000000    -2.798000000
C    -2.489000000    -1.721000000    -3.981000000
O    -3.639000000    -1.344000000    -4.166000000
O    -1.863000000    -2.317000000    -4.845000000
O     0.788000000    -1.560000000    -8.406000000
H     1.430000000    -2.227000000    -8.650000000
H     0.567000000    -1.128000000    -9.232000000
O    -4.365000000    -4.003000000    -5.049000000
H    -3.667000000    -4.407000000    -5.565000000
H    -4.004000000    -3.158000000    -4.779000000
O    -6.089000000    -1.340000000    -8.709000000
H    -5.236000000    -1.512000000    -8.310000000
H    -5.891000000    -0.795000000    -9.471000000
O    -4.264000000     1.288000000    -4.554000000
H    -3.480000000     1.717000000    -4.896000000
H    -4.017000000     0.366000000    -4.473000000
O    -6.475000000    -1.118000000    -5.012000000
H    -5.533000000    -0.970000000    -4.922000000
H    -6.545000000    -1.836000000    -5.641000000
O    -6.776000000    -4.416000000    -3.642000000
H    -6.234000000    -4.738000000    -4.362000000
H    -6.315000000    -3.640000000    -3.324000000
O     0.475000000     1.957000000    -5.383000000
H     0.385000000     2.061000000    -4.436000000
H     0.366000000     1.018000000    -5.533000000
O    -2.806000000     0.100000000   -10.119000000
H    -2.850000000    -0.084000000    -9.180000000
H    -3.539000000     0.693000000   -10.281000000
O    -5.691000000    -5.313000000    -7.350000000
H    -6.009000000    -6.196000000    -7.163000000
H    -4.930000000    -5.206000000    -6.779000000
O    -1.373000000    -3.890000000    -6.925000000
H    -0.424000000    -3.832000000    -7.033000000
H    -1.562000000    -3.338000000    -6.166000000
O    -1.489000000     4.037000000    -6.359000000
H    -2.333000000     3.675000000    -6.627000000
H    -1.024000000     3.298000000    -5.968000000
O    -0.374000000    -0.637000000    -6.178000000
H    -0.019000000    -1.025000000    -6.977000000
H    -0.904000000    -1.333000000    -5.789000000
O     0.260000000     1.571000000    -2.598000000
H     0.048000000     0.685000000    -2.305000000
H    -0.198000000     2.143000000    -1.982000000
O    -4.090000000     2.830000000    -6.776000000
H    -3.569000000     2.112000000    -7.135000000
H    -4.934000000     2.430000000    -6.564000000
O    -3.617000000    -1.181000000    -7.116000000
H    -3.066000000    -0.401000000    -7.046000000
H    -3.379000000    -1.711000000    -6.355000000
O    -6.815000000     1.067000000    -3.470000000
H    -5.994000000     1.466000000    -3.756000000
H    -6.820000000     0.205000000    -3.885000000
O    -3.201000000    -6.386000000    -6.214000000
H    -2.268000000    -6.601000000    -6.222000000
H    -3.614000000    -7.090000000    -6.714000000
O    -1.818000000     1.182000000    -7.430000000
H    -1.204000000     0.682000000    -6.892000000
H    -1.260000000     1.688000000    -8.021000000
O    -1.451000000    -5.113000000    -9.362000000
H    -1.492000000    -4.804000000    -8.457000000
H    -0.612000000    -4.788000000    -9.688000000
