215
-1419.59087
C    -0.312000000    -3.570000000    -1.026000000
H    -0.989000000    -3.283000000    -0.226000000
C     0.908000000    -4.060000000    -0.517000000
C     1.859000000    -4.412000000    -1.431000000
H     2.795000000    -4.896000000    -1.164000000
C     1.290000000    -3.831000000     0.947000000
O     0.503000000    -4.484000000     1.929000000
H     1.084000000    -2.755000000     1.053000000
O     2.664000000    -4.107000000     1.315000000
C     3.372000000    -2.991000000     1.777000000
C     3.957000000    -2.283000000     0.736000000
H     4.034000000    -2.545000000    -0.316000000
C     4.460000000    -1.040000000     1.045000000
O     5.052000000    -0.391000000     0.022000000
C     4.384000000    -0.541000000     2.291000000
C     4.985000000     0.825000000     2.694000000
H     5.336000000     0.921000000     3.724000000
C     3.926000000     1.937000000     2.403000000
C     2.936000000     2.256000000     3.276000000
H     3.055000000     1.857000000     4.280000000
H     5.885000000     1.006000000     2.103000000
C     3.726000000    -1.184000000     3.334000000
H     3.615000000    -0.672000000     4.287000000
C     3.126000000    -2.440000000     3.053000000
C     2.217000000    -3.107000000     4.095000000
H     2.460000000    -2.777000000     5.107000000
H     2.536000000    -4.151000000     4.064000000
C     0.683000000    -3.013000000     3.933000000
C     0.133000000    -1.936000000     4.639000000
H     0.738000000    -1.463000000     5.408000000
C    -0.065000000    -3.662000000     2.939000000
C    -1.435000000    -3.421000000     2.909000000
H    -2.126000000    -4.054000000     2.359000000
C    -1.940000000    -2.414000000     3.682000000
O    -3.276000000    -2.086000000     3.539000000
C    -3.499000000    -0.830000000     2.786000000
C    -4.793000000    -0.886000000     1.941000000
C    -5.571000000     0.250000000     1.689000000
H    -5.437000000     1.189000000     2.220000000
C    -5.066000000    -2.064000000     1.257000000
H    -4.395000000    -2.917000000     1.197000000
O    -3.706000000     0.237000000     3.681000000
H    -2.681000000    -0.616000000     2.083000000
C    -1.194000000    -1.619000000     4.572000000
C    -1.657000000    -0.526000000     5.488000000
H    -1.182000000    -0.510000000     6.471000000
H    -2.697000000    -0.689000000     5.779000000
C    -1.538000000     0.774000000     4.740000000
C    -0.391000000     1.533000000     4.760000000
H     0.374000000     1.197000000     5.456000000
C    -2.545000000     0.980000000     3.821000000
C    -2.503000000     2.124000000     3.053000000
H    -3.244000000     2.300000000     2.277000000
C    -1.424000000     2.989000000     3.157000000
O    -1.316000000     3.969000000     2.099000000
C    -0.460000000     3.682000000     0.928000000
C    -1.168000000     4.009000000    -0.355000000
C    -2.570000000     4.187000000    -0.384000000
H    -3.169000000     4.051000000     0.513000000
C    -0.484000000     3.885000000    -1.586000000
H     0.584000000     3.682000000    -1.592000000
O     0.788000000     4.385000000     1.110000000
H    -0.253000000     2.613000000     0.769000000
C    -0.335000000     2.683000000     4.004000000
C     0.888000000     3.571000000     3.935000000
H     1.371000000     3.475000000     4.910000000
H     0.600000000     4.622000000     3.872000000
C     1.915000000     3.181000000     2.896000000
C     1.927000000     3.747000000     1.595000000
C     2.882000000     3.365000000     0.689000000
H     2.904000000     3.670000000    -0.354000000
C     3.890000000     2.478000000     1.101000000
O     4.780000000     1.992000000     0.130000000
C     4.371000000     0.739000000    -0.546000000
H     3.281000000     0.673000000    -0.416000000
C     4.555000000     0.823000000    -2.014000000
C     4.869000000    -0.295000000    -2.737000000
H     5.022000000    -1.228000000    -2.201000000
C     4.290000000     2.031000000    -2.662000000
H     4.077000000     2.897000000    -2.040000000
C     4.384000000     2.082000000    -4.022000000
O     4.216000000     3.329000000    -4.602000000
C     4.648000000     0.964000000    -4.815000000
H     4.699000000     1.023000000    -5.899000000
C     4.949000000    -0.217000000    -4.114000000
O     5.301000000    -1.343000000    -4.779000000
C     5.202000000    -2.716000000    -4.459000000
C     3.949000000    -3.189000000    -4.416000000
H     3.156000000    -2.499000000    -4.695000000
C     6.311000000    -3.567000000    -4.269000000
H     7.319000000    -3.183000000    -4.397000000
C     6.051000000    -4.908000000    -3.914000000
H     6.838000000    -5.651000000    -3.813000000
C     4.710000000    -5.355000000    -3.813000000
H     4.512000000    -6.394000000    -3.564000000
C     3.658000000    -4.480000000    -4.018000000
O     2.422000000    -4.958000000    -3.697000000
C     1.561000000    -4.492000000    -2.796000000
C     0.243000000    -4.389000000    -3.235000000
H    -0.113000000    -4.654000000    -4.227000000
C    -0.689000000    -3.783000000    -2.325000000
O    -1.982000000    -3.546000000    -2.710000000
C    -3.031000000    -4.114000000    -2.111000000
C    -4.136000000    -3.372000000    -1.749000000
H    -4.165000000    -2.333000000    -2.067000000
C    -2.887000000    -5.363000000    -1.524000000
H    -2.026000000    -6.007000000    -1.685000000
C    -3.939000000    -6.025000000    -0.938000000
H    -3.883000000    -7.054000000    -0.592000000
C    -5.167000000    -5.317000000    -0.706000000
H    -6.006000000    -5.798000000    -0.209000000
C    -5.179000000    -3.908000000    -0.998000000
O    -6.208000000    -3.121000000    -0.567000000
C    -6.094000000    -2.132000000     0.336000000
C    -7.034000000    -1.082000000     0.244000000
H    -7.853000000    -1.049000000    -0.471000000
C    -6.705000000     0.085000000     0.900000000
O    -7.575000000     1.122000000     0.584000000
C    -7.130000000     2.423000000     0.307000000
C    -6.184000000     2.720000000    -0.679000000
H    -5.872000000     1.954000000    -1.384000000
C    -7.454000000     3.444000000     1.183000000
H    -8.148000000     3.119000000     1.955000000
C    -6.918000000     4.730000000     1.162000000
H    -7.270000000     5.495000000     1.850000000
C    -5.942000000     5.006000000     0.231000000
H    -5.442000000     5.971000000     0.212000000
C    -5.621000000     4.050000000    -0.737000000
O    -4.631000000     4.287000000    -1.686000000
C    -3.267000000     4.252000000    -1.571000000
C    -2.560000000     4.012000000    -2.763000000
H    -3.112000000     3.831000000    -3.682000000
C    -1.168000000     3.864000000    -2.786000000
O    -0.594000000     3.788000000    -4.014000000
C     0.624000000     4.289000000    -4.292000000
C     0.855000000     5.687000000    -4.188000000
H     0.087000000     6.383000000    -3.859000000
C     2.116000000     6.236000000    -4.528000000
H     2.305000000     7.306000000    -4.516000000
C     3.269000000     5.491000000    -4.536000000
H     4.245000000     5.945000000    -4.680000000
C     3.071000000     4.118000000    -4.484000000
C     1.818000000     3.520000000    -4.463000000
H     1.740000000     2.448000000    -4.301000000
C     0.904000000    -0.726000000    -2.481000000
H     1.702000000    -1.059000000    -3.140000000
C     1.177000000    -0.743000000    -1.122000000
H     2.105000000    -1.183000000    -0.765000000
C     0.249000000    -0.246000000    -0.216000000
H     0.489000000    -0.238000000     0.823000000
C    -0.992000000     0.257000000    -0.709000000
H    -1.694000000     0.649000000     0.024000000
C    -1.233000000     0.282000000    -2.103000000
H    -2.182000000     0.662000000    -2.473000000
C    -0.176000000    -0.060000000    -3.008000000
C    -0.380000000     0.032000000    -4.484000000
O    -1.196000000     0.718000000    -5.037000000
O     0.548000000    -0.427000000    -5.172000000
O    -0.319000000    -2.357000000    -6.465000000
H    -0.542000000    -1.898000000    -7.275000000
H    -0.068000000    -1.661000000    -5.858000000
O    -6.542000000    -0.887000000    -6.855000000
H    -7.275000000    -1.055000000    -6.262000000
H    -5.912000000    -0.400000000    -6.324000000
O    -5.996000000     0.998000000    -4.226000000
H    -5.143000000     0.621000000    -4.441000000
H    -5.955000000     1.892000000    -4.564000000
O    -3.581000000     0.021000000    -5.063000000
H    -2.670000000     0.301000000    -4.976000000
H    -3.534000000    -0.931000000    -5.142000000
O    -2.823000000     0.662000000    -9.874000000
H    -2.592000000    -0.162000000   -10.303000000
H    -2.581000000     0.531000000    -8.958000000
O     2.235000000     0.428000000    -6.959000000
H     1.670000000     0.937000000    -7.541000000
H     1.669000000     0.187000000    -6.226000000
O     0.659000000     2.098000000    -8.774000000
H     0.147000000     2.180000000    -7.970000000
H     0.523000000     2.927000000    -9.232000000
O     2.450000000    -1.049000000   -10.538000000
H     1.633000000    -0.790000000   -10.964000000
H     2.531000000    -0.454000000    -9.793000000
O    -2.842000000    -2.586000000    -5.205000000
H    -1.981000000    -2.801000000    -5.563000000
H    -2.805000000    -2.885000000    -4.297000000
O     3.733000000    -1.872000000    -7.648000000
H     3.411000000    -1.168000000    -7.085000000
H     4.355000000    -1.443000000    -8.236000000
O    -4.544000000    -1.534000000    -8.769000000
H    -5.039000000    -1.158000000    -8.042000000
H    -3.919000000    -2.126000000    -8.352000000
O    -0.969000000    -3.263000000    -9.942000000
H    -1.307000000    -3.483000000    -9.074000000
H    -0.260000000    -3.889000000   -10.089000000
O    -1.031000000     2.634000000    -6.592000000
H    -1.454000000     3.324000000    -6.081000000
H    -1.138000000     1.844000000    -6.061000000
O     1.706000000    -3.783000000    -7.221000000
H     2.461000000    -3.204000000    -7.119000000
H     0.973000000    -3.288000000    -6.855000000
O    -3.346000000     4.507000000    -6.388000000
H    -3.771000000     4.948000000    -7.124000000
H    -3.945000000     4.637000000    -5.653000000
O    -0.651000000    -0.189000000    -8.090000000
H    -0.433000000     0.644000000    -8.508000000
H    -0.757000000     0.027000000    -7.164000000
O    -1.131000000     5.108000000    -8.329000000
H    -2.017000000     5.126000000    -7.968000000
H    -0.617000000     4.628000000    -7.680000000
O    -4.138000000     1.749000000    -7.146000000
H    -3.904000000     1.159000000    -6.429000000
H    -3.633000000     2.544000000    -6.977000000
O    -3.665000000    -4.031000000    -7.311000000
H    -4.482000000    -4.528000000    -7.263000000
H    -3.628000000    -3.551000000    -6.484000000
