215
-1456.69052
C    -1.246000000    -5.165000000    -0.352000000
H    -1.831000000    -5.033000000     0.555000000
C     0.056000000    -4.688000000    -0.395000000
C     0.787000000    -4.927000000    -1.537000000
H     1.820000000    -4.599000000    -1.607000000
C     0.619000000    -3.945000000     0.830000000
O    -0.038000000    -4.432000000     1.981000000
H     0.540000000    -2.848000000     0.832000000
O     1.982000000    -4.303000000     0.937000000
C     2.925000000    -3.352000000     1.267000000
C     3.514000000    -2.660000000     0.171000000
H     3.361000000    -3.133000000    -0.796000000
C     4.180000000    -1.431000000     0.364000000
O     4.731000000    -0.748000000    -0.705000000
C     4.300000000    -0.895000000     1.634000000
C     5.031000000     0.412000000     1.968000000
H     5.430000000     0.327000000     2.981000000
C     4.206000000     1.602000000     1.734000000
C     3.556000000     2.158000000     2.816000000
H     3.651000000     1.655000000     3.775000000
H     5.913000000     0.431000000     1.324000000
C     3.715000000    -1.572000000     2.633000000
H     3.785000000    -1.143000000     3.630000000
C     2.996000000    -2.775000000     2.541000000
C     2.158000000    -3.419000000     3.659000000
H     2.711000000    -3.214000000     4.578000000
H     2.139000000    -4.508000000     3.593000000
C     0.713000000    -2.926000000     3.783000000
C     0.372000000    -1.911000000     4.723000000
H     1.143000000    -1.399000000     5.294000000
C    -0.311000000    -3.557000000     3.007000000
C    -1.630000000    -3.153000000     3.189000000
H    -2.394000000    -3.696000000     2.638000000
C    -1.916000000    -2.086000000     4.045000000
O    -3.163000000    -1.516000000     3.816000000
C    -3.279000000    -0.426000000     2.923000000
C    -4.399000000    -0.487000000     1.980000000
C    -4.960000000     0.646000000     1.377000000
H    -4.569000000     1.605000000     1.708000000
C    -4.796000000    -1.749000000     1.492000000
H    -4.229000000    -2.644000000     1.736000000
O    -3.178000000     0.842000000     3.574000000
H    -2.403000000    -0.530000000     2.267000000
C    -0.901000000    -1.400000000     4.792000000
C    -1.173000000    -0.063000000     5.455000000
H    -0.628000000     0.119000000     6.383000000
H    -2.228000000    -0.126000000     5.731000000
C    -0.968000000     1.117000000     4.501000000
C     0.243000000     1.787000000     4.571000000
H     1.033000000     1.544000000     5.278000000
C    -1.989000000     1.553000000     3.647000000
C    -1.788000000     2.663000000     2.851000000
H    -2.650000000     3.024000000     2.296000000
C    -0.571000000     3.284000000     2.926000000
O    -0.547000000     4.291000000     1.962000000
C     0.363000000     4.173000000     0.920000000
C    -0.271000000     4.800000000    -0.359000000
C    -1.599000000     4.586000000    -0.579000000
H    -2.169000000     3.862000000    -0.003000000
C     0.551000000     5.658000000    -1.150000000
H     1.624000000     5.815000000    -1.072000000
O     1.629000000     4.738000000     1.252000000
H     0.517000000     3.103000000     0.719000000
C     0.426000000     2.899000000     3.794000000
C     1.785000000     3.621000000     3.825000000
H     2.311000000     3.404000000     4.757000000
H     1.562000000     4.690000000     3.826000000
C     2.703000000     3.240000000     2.668000000
C     2.606000000     3.803000000     1.394000000
C     3.215000000     3.239000000     0.283000000
H     3.012000000     3.541000000    -0.741000000
C     4.085000000     2.144000000     0.431000000
O     4.551000000     1.535000000    -0.714000000
C     3.983000000     0.351000000    -1.166000000
H     2.982000000     0.354000000    -0.711000000
C     3.682000000     0.393000000    -2.717000000
C     3.839000000    -0.708000000    -3.508000000
H     4.315000000    -1.601000000    -3.111000000
C     3.190000000     1.526000000    -3.257000000
H     3.231000000     2.432000000    -2.657000000
C     2.749000000     1.585000000    -4.559000000
O     2.535000000     2.781000000    -5.148000000
C     2.770000000     0.426000000    -5.341000000
H     2.553000000     0.386000000    -6.405000000
C     3.384000000    -0.749000000    -4.824000000
O     3.335000000    -1.903000000    -5.553000000
C     3.366000000    -3.176000000    -4.963000000
C     2.224000000    -3.932000000    -4.776000000
H     1.249000000    -3.602000000    -5.126000000
C     4.604000000    -3.784000000    -4.769000000
H     5.514000000    -3.303000000    -5.119000000
C     4.643000000    -5.086000000    -4.244000000
H     5.627000000    -5.509000000    -4.059000000
C     3.477000000    -5.749000000    -3.909000000
H     3.569000000    -6.745000000    -3.484000000
C     2.263000000    -5.133000000    -4.067000000
O     1.062000000    -5.790000000    -3.825000000
C     0.271000000    -5.430000000    -2.727000000
C    -1.039000000    -5.824000000    -2.709000000
H    -1.522000000    -6.237000000    -3.591000000
C    -1.825000000    -5.663000000    -1.533000000
O    -3.147000000    -5.952000000    -1.638000000
C    -4.025000000    -5.767000000    -0.642000000
C    -4.647000000    -4.556000000    -0.662000000
H    -4.458000000    -3.943000000    -1.540000000
C    -4.250000000    -6.628000000     0.445000000
H    -3.763000000    -7.600000000     0.464000000
C    -5.272000000    -6.258000000     1.379000000
H    -5.413000000    -6.908000000     2.239000000
C    -5.853000000    -5.023000000     1.355000000
H    -6.587000000    -4.834000000     2.134000000
C    -5.579000000    -4.205000000     0.306000000
O    -6.259000000    -3.037000000     0.055000000
C    -5.766000000    -1.824000000     0.485000000
C    -6.458000000    -0.628000000     0.091000000
H    -7.234000000    -0.736000000    -0.663000000
C    -6.065000000     0.602000000     0.565000000
O    -6.585000000     1.735000000    -0.061000000
C    -5.945000000     2.979000000    -0.009000000
C    -5.238000000     3.490000000    -1.068000000
H    -5.118000000     2.961000000    -2.009000000
C    -5.965000000     3.686000000     1.236000000
H    -6.637000000     3.446000000     2.056000000
C    -5.268000000     4.936000000     1.320000000
H    -5.276000000     5.521000000     2.236000000
C    -4.525000000     5.426000000     0.252000000
H    -3.944000000     6.344000000     0.228000000
C    -4.506000000     4.722000000    -0.915000000
O    -3.626000000     5.120000000    -1.908000000
C    -2.239000000     5.228000000    -1.625000000
C    -1.483000000     6.033000000    -2.462000000
H    -1.949000000     6.518000000    -3.316000000
C    -0.138000000     6.212000000    -2.217000000
O     0.608000000     6.839000000    -3.170000000
C     1.644000000     6.138000000    -3.793000000
C     2.877000000     6.649000000    -3.645000000
H     2.991000000     7.621000000    -3.171000000
C     3.993000000     5.820000000    -3.910000000
H     4.945000000     6.294000000    -3.682000000
C     3.931000000     4.559000000    -4.490000000
H     4.844000000     3.975000000    -4.578000000
C     2.625000000     4.057000000    -4.687000000
C     1.506000000     4.821000000    -4.289000000
H     0.503000000     4.417000000    -4.406000000
C    -0.216000000    -1.805000000    -2.352000000
H     0.273000000    -2.417000000    -3.105000000
C     0.545000000    -1.391000000    -1.273000000
H     1.612000000    -1.600000000    -1.239000000
C    -0.105000000    -0.656000000    -0.268000000
H     0.487000000    -0.362000000     0.588000000
C    -1.472000000    -0.301000000    -0.447000000
H    -1.903000000     0.396000000     0.267000000
C    -2.228000000    -0.884000000    -1.445000000
H    -3.312000000    -0.815000000    -1.474000000
C    -1.592000000    -1.608000000    -2.444000000
C    -2.377000000    -2.343000000    -3.497000000
O    -3.604000000    -2.478000000    -3.436000000
O    -1.696000000    -2.768000000    -4.443000000
O     0.259000000    -2.948000000    -8.126000000
H    -0.290000000    -2.444000000    -8.726000000
H    -0.332000000    -3.601000000    -7.752000000
O    -5.277000000    -4.599000000    -4.035000000
H    -6.097000000    -4.193000000    -4.316000000
H    -4.814000000    -3.905000000    -3.566000000
O    -4.789000000     0.711000000    -7.661000000
H    -4.140000000     0.013000000    -7.579000000
H    -5.397000000     0.396000000    -8.330000000
O    -4.069000000    -7.007000000    -4.596000000
H    -4.271000000    -6.134000000    -4.259000000
H    -3.554000000    -6.846000000    -5.386000000
O    -3.191000000     2.540000000    -3.965000000
H    -2.899000000     3.446000000    -4.064000000
H    -2.475000000     2.105000000    -3.503000000
O    -8.106000000    -1.770000000    -2.722000000
H    -7.219000000    -1.472000000    -2.922000000
H    -8.633000000    -0.971000000    -2.722000000
O    -5.693000000    -1.104000000    -4.166000000
H    -5.006000000    -1.619000000    -3.743000000
H    -5.836000000    -1.540000000    -5.007000000
O    -0.504000000     2.267000000    -5.726000000
H    -0.403000000     1.660000000    -4.993000000
H    -0.768000000     1.714000000    -6.461000000
O    -1.643000000    -4.621000000    -6.395000000
H    -1.322000000    -5.300000000    -5.801000000
H    -1.786000000    -3.859000000    -5.833000000
O    -8.551000000    -4.621000000    -5.948000000
H    -9.333000000    -4.069000000    -5.962000000
H    -7.829000000    -4.011000000    -5.798000000
O    -0.347000000    -0.764000000    -5.857000000
H     0.528000000    -1.056000000    -6.114000000
H    -0.746000000    -1.533000000    -5.450000000
O    -0.789000000     1.521000000    -2.783000000
H     0.161000000     1.579000000    -2.886000000
H    -0.919000000     0.825000000    -2.140000000
O    -1.996000000    -7.509000000    -6.236000000
H    -1.048000000    -7.450000000    -6.119000000
H    -2.109000000    -8.095000000    -6.985000000
O    -3.761000000     3.001000000    -6.981000000
H    -4.233000000     2.394000000    -7.552000000
H    -3.489000000     2.466000000    -6.236000000
O    -4.132000000    -2.621000000    -6.362000000
H    -3.442000000    -2.179000000    -6.857000000
H    -3.851000000    -2.555000000    -5.449000000
O    -7.014000000    -2.632000000    -6.892000000
H    -7.327000000    -1.893000000    -7.414000000
H    -6.112000000    -2.765000000    -7.182000000
O    -5.894000000     1.878000000    -4.314000000
H    -4.976000000     2.133000000    -4.219000000
H    -5.882000000     0.922000000    -4.274000000
O    -4.164000000    -4.841000000    -8.060000000
H    -3.233000000    -5.062000000    -8.070000000
H    -4.226000000    -4.095000000    -7.463000000
O    -2.395000000    -1.100000000    -7.945000000
H    -1.635000000    -0.815000000    -7.438000000
H    -2.102000000    -1.065000000    -8.856000000
