215
-1440.81641
C    -2.750000000    -4.346000000     0.247000000
H    -3.469000000    -3.842000000     0.888000000
C    -1.393000000    -4.495000000     0.683000000
C    -0.475000000    -5.209000000    -0.093000000
H     0.567000000    -5.310000000     0.201000000
C    -0.975000000    -3.713000000     1.915000000
O    -2.061000000    -3.503000000     2.853000000
H    -0.653000000    -2.756000000     1.478000000
O     0.219000000    -4.317000000     2.476000000
C     1.263000000    -3.590000000     2.968000000
C     2.331000000    -3.616000000     2.099000000
H     2.252000000    -4.251000000     1.220000000
C     3.307000000    -2.576000000     2.240000000
O     4.246000000    -2.475000000     1.258000000
C     3.232000000    -1.751000000     3.358000000
C     4.218000000    -0.607000000     3.526000000
H     4.319000000    -0.452000000     4.602000000
C     3.923000000     0.697000000     2.736000000
C     3.296000000     1.762000000     3.343000000
H     2.953000000     1.657000000     4.369000000
H     5.203000000    -1.023000000     3.304000000
C     2.310000000    -2.002000000     4.342000000
H     2.299000000    -1.415000000     5.257000000
C     1.217000000    -2.818000000     4.092000000
C    -0.036000000    -2.775000000     4.933000000
H     0.271000000    -2.397000000     5.910000000
H    -0.436000000    -3.765000000     5.158000000
C    -1.147000000    -1.867000000     4.370000000
C    -1.053000000    -0.473000000     4.679000000
H    -0.242000000    -0.070000000     5.280000000
C    -2.129000000    -2.252000000     3.483000000
C    -3.097000000    -1.344000000     3.039000000
H    -3.776000000    -1.615000000     2.235000000
C    -3.102000000    -0.021000000     3.525000000
O    -4.010000000     0.821000000     2.982000000
C    -3.466000000     1.723000000     1.939000000
C    -4.287000000     1.798000000     0.666000000
C    -4.600000000     3.040000000     0.098000000
H    -4.487000000     3.999000000     0.597000000
C    -4.581000000     0.652000000    -0.065000000
H    -4.482000000    -0.319000000     0.413000000
O    -3.308000000     3.072000000     2.567000000
H    -2.449000000     1.371000000     1.715000000
C    -2.017000000     0.403000000     4.302000000
C    -2.015000000     1.798000000     4.885000000
H    -1.693000000     1.819000000     5.928000000
H    -3.015000000     2.230000000     4.967000000
C    -1.249000000     2.698000000     3.925000000
C     0.086000000     2.932000000     4.089000000
H     0.747000000     2.615000000     4.892000000
C    -1.953000000     3.334000000     2.911000000
C    -1.342000000     4.227000000     2.052000000
H    -1.912000000     4.703000000     1.259000000
C     0.012000000     4.307000000     2.088000000
O     0.664000000     4.922000000     1.056000000
C     1.420000000     4.051000000     0.147000000
C     1.236000000     4.352000000    -1.290000000
C     0.064000000     4.891000000    -1.712000000
H    -0.764000000     5.127000000    -1.048000000
C     2.238000000     4.028000000    -2.195000000
H     3.181000000     3.586000000    -1.884000000
O     2.838000000     4.042000000     0.438000000
H     1.043000000     3.030000000     0.305000000
C     0.717000000     3.776000000     3.179000000
C     2.166000000     4.003000000     3.284000000
H     2.487000000     4.141000000     4.319000000
H     2.288000000     5.000000000     2.855000000
C     2.919000000     2.900000000     2.602000000
C     3.207000000     3.005000000     1.280000000
C     3.930000000     1.946000000     0.735000000
H     4.111000000     1.966000000    -0.336000000
C     4.240000000     0.793000000     1.398000000
O     4.816000000    -0.191000000     0.634000000
C     4.051000000    -1.386000000     0.335000000
H     3.000000000    -1.061000000     0.353000000
C     4.250000000    -1.912000000    -1.067000000
C     4.254000000    -3.331000000    -1.401000000
H     4.396000000    -4.152000000    -0.703000000
C     4.189000000    -0.952000000    -2.051000000
H     4.113000000     0.099000000    -1.785000000
C     4.240000000    -1.369000000    -3.419000000
O     3.969000000    -0.506000000    -4.446000000
C     4.134000000    -2.729000000    -3.695000000
H     4.045000000    -2.993000000    -4.746000000
C     4.219000000    -3.721000000    -2.716000000
O     4.197000000    -5.050000000    -3.157000000
C     3.318000000    -6.033000000    -2.661000000
C     1.963000000    -5.725000000    -2.429000000
H     1.564000000    -4.722000000    -2.558000000
C     3.783000000    -7.359000000    -2.721000000
H     4.757000000    -7.606000000    -3.135000000
C     2.848000000    -8.333000000    -2.498000000
H     3.171000000    -9.347000000    -2.720000000
C     1.549000000    -8.049000000    -2.205000000
H     0.829000000    -8.858000000    -2.116000000
C     1.082000000    -6.748000000    -2.105000000
O    -0.269000000    -6.573000000    -2.028000000
C    -1.007000000    -5.803000000    -1.235000000
C    -2.318000000    -5.702000000    -1.627000000
H    -2.729000000    -6.216000000    -2.493000000
C    -3.239000000    -4.967000000    -0.892000000
O    -4.550000000    -5.015000000    -1.163000000
C    -5.380000000    -3.882000000    -1.044000000
C    -5.005000000    -2.657000000    -1.605000000
H    -4.052000000    -2.566000000    -2.121000000
C    -6.650000000    -4.003000000    -0.465000000
H    -6.945000000    -4.999000000    -0.145000000
C    -7.490000000    -2.974000000    -0.244000000
H    -8.454000000    -3.068000000     0.248000000
C    -7.090000000    -1.714000000    -0.756000000
H    -7.745000000    -0.847000000    -0.790000000
C    -5.896000000    -1.558000000    -1.458000000
O    -5.541000000    -0.394000000    -2.066000000
C    -5.078000000     0.746000000    -1.381000000
C    -5.421000000     1.980000000    -1.906000000
H    -5.913000000     1.997000000    -2.875000000
C    -5.187000000     3.095000000    -1.204000000
O    -5.439000000     4.334000000    -1.724000000
C    -4.517000000     5.382000000    -1.854000000
C    -3.328000000     5.080000000    -2.435000000
H    -3.103000000     4.060000000    -2.735000000
C    -4.897000000     6.716000000    -1.499000000
H    -5.821000000     7.110000000    -1.082000000
C    -3.954000000     7.729000000    -1.745000000
H    -4.128000000     8.763000000    -1.458000000
C    -2.742000000     7.397000000    -2.346000000
H    -1.935000000     8.108000000    -2.503000000
C    -2.457000000     6.091000000    -2.735000000
O    -1.206000000     5.904000000    -3.389000000
C    -0.130000000     5.184000000    -3.058000000
C     0.915000000     4.823000000    -4.023000000
H     0.753000000     5.124000000    -5.055000000
C     2.035000000     4.253000000    -3.561000000
O     3.181000000     4.136000000    -4.417000000
C     4.015000000     3.090000000    -4.284000000
C     5.364000000     3.323000000    -4.067000000
H     5.736000000     4.339000000    -3.968000000
C     6.192000000     2.246000000    -3.817000000
H     7.234000000     2.413000000    -3.558000000
C     5.782000000     0.995000000    -4.099000000
H     6.465000000     0.179000000    -3.877000000
C     4.457000000     0.767000000    -4.459000000
C     3.591000000     1.789000000    -4.581000000
H     2.530000000     1.587000000    -4.711000000
C     0.059000000    -0.705000000    -2.339000000
H     0.185000000    -1.554000000    -3.006000000
C     0.318000000    -0.768000000    -0.994000000
H     0.818000000    -1.622000000    -0.545000000
C     0.063000000     0.326000000    -0.098000000
H     0.347000000     0.056000000     0.874000000
C    -0.521000000     1.479000000    -0.653000000
H    -0.859000000     2.322000000    -0.055000000
C    -0.829000000     1.510000000    -2.041000000
H    -1.218000000     2.444000000    -2.438000000
C    -0.530000000     0.477000000    -2.889000000
C    -1.021000000     0.453000000    -4.315000000
O    -1.709000000     1.338000000    -4.696000000
O    -1.092000000    -0.657000000    -4.835000000
O    -2.485000000     2.686000000   -10.563000000
H    -2.051000000     2.070000000    -9.971000000
H    -2.505000000     3.510000000   -10.077000000
O     0.733000000    -4.453000000    -6.281000000
H     0.913000000    -3.698000000    -5.721000000
H     0.139000000    -4.998000000    -5.765000000
O     1.172000000     4.266000000    -7.502000000
H     0.697000000     3.499000000    -7.182000000
H     1.587000000     3.971000000    -8.312000000
O    -5.108000000    -2.083000000    -4.673000000
H    -5.961000000    -1.895000000    -4.280000000
H    -5.271000000    -2.068000000    -5.616000000
O     4.946000000    -1.115000000    -7.573000000
H     4.029000000    -1.390000000    -7.594000000
H     5.299000000    -1.521000000    -6.781000000
O    -5.364000000     0.871000000    -9.270000000
H    -5.096000000    -0.023000000    -9.059000000
H    -4.868000000     1.420000000    -8.663000000
O     0.330000000     1.692000000    -6.581000000
H     0.006000000     0.795000000    -6.671000000
H    -0.095000000     2.022000000    -5.790000000
O    -2.123000000    -2.642000000    -8.996000000
H    -2.989000000    -3.051000000    -8.989000000
H    -2.127000000    -2.062000000    -8.234000000
O    -2.898000000    -1.036000000    -6.867000000
H    -2.112000000    -1.012000000    -6.321000000
H    -3.523000000    -0.471000000    -6.412000000
O    -5.714000000     5.183000000    -5.066000000
H    -5.775000000     6.135000000    -4.988000000
H    -4.902000000     4.957000000    -4.612000000
O     3.242000000    -3.576000000    -7.472000000
H     3.518000000    -4.442000000    -7.172000000
H     2.351000000    -3.478000000    -7.137000000
O    -1.578000000    -5.501000000    -5.068000000
H    -2.037000000    -5.609000000    -5.901000000
H    -1.848000000    -4.638000000    -4.756000000
O     1.785000000    -0.451000000    -7.487000000
H     1.600000000    -0.639000000    -8.407000000
H     1.781000000     0.505000000    -7.432000000
O     1.141000000    -1.860000000    -5.460000000
H     1.533000000    -1.279000000    -6.111000000
H     0.377000000    -1.380000000    -5.140000000
O    -4.211000000     0.682000000    -5.190000000
H    -4.405000000     0.111000000    -4.447000000
H    -3.307000000     0.963000000    -5.047000000
O    -2.685000000     3.788000000    -5.185000000
H    -1.879000000     4.224000000    -4.907000000
H    -2.671000000     2.946000000    -4.730000000
O    -6.642000000     1.891000000    -5.932000000
H    -5.816000000     1.589000000    -5.553000000
H    -6.383000000     2.554000000    -6.572000000
O    -3.063000000     5.950000000    -6.676000000
H    -3.728000000     5.861000000    -7.359000000
H    -3.143000000     5.149000000    -6.159000000
O    -2.410000000    -3.028000000    -4.361000000
H    -1.823000000    -2.272000000    -4.395000000
H    -3.208000000    -2.731000000    -4.797000000
