215
-1450.42006
C    -3.690000000    -3.952000000    -0.428000000
H    -4.074000000    -3.151000000     0.200000000
C    -2.450000000    -4.491000000    -0.101000000
C    -1.723000000    -5.320000000    -0.980000000
H    -0.726000000    -5.701000000    -0.773000000
C    -1.630000000    -3.813000000     1.025000000
O    -2.524000000    -3.497000000     2.140000000
H    -1.118000000    -2.970000000     0.537000000
O    -0.594000000    -4.751000000     1.430000000
C     0.617000000    -4.265000000     1.820000000
C     1.653000000    -4.313000000     0.880000000
H     1.515000000    -4.789000000    -0.088000000
C     2.892000000    -3.736000000     1.140000000
O     3.764000000    -3.478000000     0.150000000
C     3.132000000    -3.114000000     2.410000000
C     4.439000000    -2.306000000     2.609000000
H     4.724000000    -2.484000000     3.648000000
C     4.104000000    -0.836000000     2.282000000
C     3.706000000     0.113000000     3.154000000
H     3.556000000    -0.143000000     4.200000000
H     5.261000000    -2.714000000     2.016000000
C     2.148000000    -3.198000000     3.358000000
H     2.389000000    -2.852000000     4.360000000
C     0.836000000    -3.689000000     3.066000000
C    -0.249000000    -3.602000000     4.119000000
H     0.198000000    -3.485000000     5.108000000
H    -0.846000000    -4.515000000     4.166000000
C    -1.107000000    -2.398000000     3.939000000
C    -0.760000000    -1.207000000     4.627000000
H     0.044000000    -1.224000000     5.358000000
C    -2.185000000    -2.462000000     3.052000000
C    -2.935000000    -1.293000000     2.878000000
H    -3.875000000    -1.360000000     2.337000000
C    -2.569000000    -0.146000000     3.510000000
O    -3.328000000     0.912000000     3.168000000
C    -2.725000000     2.050000000     2.569000000
C    -3.656000000     2.536000000     1.394000000
C    -3.719000000     3.851000000     0.954000000
H    -3.408000000     4.650000000     1.622000000
C    -3.975000000     1.585000000     0.437000000
H    -3.746000000     0.549000000     0.674000000
O    -2.327000000     3.105000000     3.549000000
H    -1.836000000     1.718000000     2.014000000
C    -1.533000000    -0.045000000     4.439000000
C    -1.355000000     1.138000000     5.330000000
H    -0.881000000     0.818000000     6.261000000
H    -2.283000000     1.609000000     5.662000000
C    -0.494000000     2.194000000     4.720000000
C     0.912000000     2.085000000     4.869000000
H     1.331000000     1.321000000     5.519000000
C    -1.016000000     3.131000000     3.851000000
C    -0.171000000     3.876000000     3.105000000
H    -0.645000000     4.649000000     2.505000000
C     1.157000000     3.801000000     3.199000000
O     1.853000000     4.428000000     2.177000000
C     2.020000000     3.614000000     0.997000000
C     1.805000000     4.388000000    -0.354000000
C     0.979000000     5.568000000    -0.398000000
H     0.530000000     5.972000000     0.506000000
C     2.217000000     3.808000000    -1.581000000
H     2.848000000     2.924000000    -1.561000000
O     3.300000000     3.055000000     1.031000000
H     1.323000000     2.764000000     0.945000000
C     1.767000000     2.823000000     4.008000000
C     3.269000000     2.538000000     3.986000000
H     3.625000000     2.220000000     4.968000000
H     3.738000000     3.516000000     3.854000000
C     3.512000000     1.495000000     2.852000000
C     3.558000000     1.814000000     1.483000000
C     3.865000000     0.861000000     0.571000000
H     3.904000000     1.223000000    -0.453000000
C     4.219000000    -0.427000000     0.932000000
O     4.552000000    -1.305000000    -0.087000000
C     3.524000000    -2.233000000    -0.503000000
H     2.564000000    -1.777000000    -0.220000000
C     3.581000000    -2.438000000    -1.988000000
C     3.144000000    -3.598000000    -2.579000000
H     2.724000000    -4.418000000    -2.002000000
C     3.848000000    -1.369000000    -2.923000000
H     4.144000000    -0.440000000    -2.442000000
C     3.864000000    -1.578000000    -4.283000000
O     4.070000000    -0.553000000    -5.213000000
C     3.524000000    -2.803000000    -4.817000000
H     3.364000000    -2.965000000    -5.880000000
C     3.081000000    -3.787000000    -3.929000000
O     2.630000000    -4.935000000    -4.531000000
C     1.833000000    -5.846000000    -3.890000000
C     0.451000000    -5.666000000    -3.825000000
H    -0.058000000    -4.767000000    -4.165000000
C     2.500000000    -6.895000000    -3.225000000
H     3.584000000    -6.973000000    -3.260000000
C     1.675000000    -7.833000000    -2.600000000
H     2.094000000    -8.679000000    -2.063000000
C     0.253000000    -7.717000000    -2.654000000
H    -0.357000000    -8.450000000    -2.132000000
C    -0.325000000    -6.654000000    -3.184000000
O    -1.701000000    -6.560000000    -3.074000000
C    -2.390000000    -5.856000000    -2.111000000
C    -3.626000000    -5.396000000    -2.401000000
H    -4.115000000    -5.716000000    -3.318000000
C    -4.259000000    -4.388000000    -1.624000000
O    -5.434000000    -3.778000000    -2.069000000
C    -5.898000000    -2.526000000    -1.612000000
C    -5.106000000    -1.379000000    -1.828000000
H    -4.090000000    -1.458000000    -2.209000000
C    -7.161000000    -2.365000000    -1.127000000
H    -7.750000000    -3.270000000    -1.003000000
C    -7.714000000    -1.092000000    -0.884000000
H    -8.774000000    -1.021000000    -0.656000000
C    -6.961000000     0.060000000    -1.021000000
H    -7.400000000     1.045000000    -0.881000000
C    -5.640000000    -0.124000000    -1.455000000
O    -4.807000000     0.946000000    -1.662000000
C    -4.557000000     1.947000000    -0.801000000
C    -4.706000000     3.270000000    -1.197000000
H    -5.163000000     3.598000000    -2.127000000
C    -4.275000000     4.252000000    -0.277000000
O    -4.393000000     5.595000000    -0.588000000
C    -3.414000000     6.515000000    -0.355000000
C    -2.304000000     6.419000000    -1.160000000
H    -2.185000000     5.565000000    -1.823000000
C    -3.567000000     7.534000000     0.587000000
H    -4.479000000     7.706000000     1.152000000
C    -2.504000000     8.403000000     0.718000000
H    -2.529000000     9.119000000     1.535000000
C    -1.387000000     8.380000000    -0.118000000
H    -0.570000000     9.029000000     0.186000000
C    -1.297000000     7.399000000    -1.087000000
O    -0.130000000     7.204000000    -1.653000000
C     0.644000000     6.086000000    -1.643000000
C     1.020000000     5.486000000    -2.835000000
H     0.781000000     5.836000000    -3.836000000
C     1.870000000     4.405000000    -2.817000000
O     2.219000000     3.770000000    -3.945000000
C     3.307000000     2.915000000    -4.079000000
C     4.635000000     3.458000000    -3.991000000
H     4.894000000     4.446000000    -3.620000000
C     5.762000000     2.634000000    -4.261000000
H     6.718000000     3.145000000    -4.184000000
C     5.564000000     1.267000000    -4.666000000
H     6.447000000     0.663000000    -4.858000000
C     4.263000000     0.759000000    -4.822000000
C     3.158000000     1.574000000    -4.459000000
H     2.165000000     1.148000000    -4.583000000
C     0.236000000    -0.436000000    -2.708000000
H     0.362000000    -1.208000000    -3.462000000
C     0.436000000    -0.733000000    -1.404000000
H     0.885000000    -1.708000000    -1.231000000
C     0.149000000     0.080000000    -0.395000000
H     0.186000000    -0.208000000     0.695000000
C    -0.359000000     1.357000000    -0.797000000
H    -0.603000000     2.068000000    -0.012000000
C    -0.493000000     1.740000000    -2.159000000
H    -0.934000000     2.714000000    -2.355000000
C    -0.212000000     0.820000000    -3.074000000
C    -0.429000000     1.164000000    -4.567000000
O    -0.719000000     2.328000000    -4.926000000
O    -0.391000000     0.304000000    -5.381000000
O     0.186000000     4.567000000    -6.051000000
H    -0.166000000     3.931000000    -5.429000000
H     0.713000000     4.046000000    -6.656000000
O     1.716000000     5.085000000    -9.212000000
H     1.932000000     4.260000000    -8.778000000
H     0.884000000     5.352000000    -8.821000000
O    -3.704000000     1.546000000    -4.340000000
H    -2.927000000     2.102000000    -4.402000000
H    -3.680000000     1.201000000    -3.448000000
O    -5.080000000     3.952000000    -4.683000000
H    -4.697000000     4.829000000    -4.670000000
H    -4.339000000     3.364000000    -4.537000000
O    -4.788000000    -3.050000000    -5.293000000
H    -5.260000000    -2.973000000    -6.122000000
H    -3.987000000    -2.542000000    -5.426000000
O     1.929000000     3.120000000    -7.597000000
H     2.733000000     2.748000000    -7.234000000
H     1.390000000     2.359000000    -7.814000000
O     0.200000000    -1.749000000    -8.934000000
H    -0.749000000    -1.687000000    -8.829000000
H     0.319000000    -2.192000000    -9.775000000
O     0.673000000     7.092000000    -6.739000000
H     0.533000000     6.293000000    -6.230000000
H     0.022000000     7.708000000    -6.402000000
O    -2.543000000    -0.999000000    -9.023000000
H    -2.681000000    -1.014000000    -8.076000000
H    -3.221000000    -1.577000000    -9.373000000
O    -0.429000000     2.697000000   -10.131000000
H    -0.011000000     3.270000000   -10.774000000
H    -0.812000000     3.296000000    -9.490000000
O     1.197000000     0.270000000    -7.680000000
H     0.957000000    -0.539000000    -8.133000000
H     0.895000000     0.138000000    -6.781000000
O    -1.503000000     2.234000000    -7.358000000
H    -1.215000000     1.367000000    -7.641000000
H    -1.105000000     2.350000000    -6.496000000
O    -1.136000000     5.067000000    -8.715000000
H    -1.937000000     4.662000000    -8.383000000
H    -1.065000000     5.889000000    -8.230000000
O    -2.428000000     4.563000000    -4.137000000
H    -2.523000000     5.142000000    -4.893000000
H    -1.483000000     4.489000000    -4.008000000
O    -4.039000000     3.049000000    -8.226000000
H    -3.327000000     2.412000000    -8.166000000
H    -4.111000000     3.412000000    -7.344000000
O     1.072000000     0.502000000   -10.765000000
H     0.396000000     1.169000000   -10.644000000
H     1.012000000    -0.045000000    -9.982000000
O    -6.404000000     1.078000000    -5.351000000
H    -5.500000000     1.249000000    -5.088000000
H    -6.806000000     1.946000000    -5.405000000
O    -2.761000000    -0.515000000    -6.276000000
H    -1.834000000    -0.553000000    -6.039000000
H    -3.123000000     0.170000000    -5.714000000
O     3.965000000    -0.535000000    -8.179000000
H     4.296000000     0.353000000    -8.312000000
H     3.248000000    -0.431000000    -7.553000000
