215
-1440.10019
C    -4.026000000    -3.810000000    -0.203000000
H    -4.520000000    -3.342000000     0.644000000
C    -2.725000000    -4.143000000    -0.143000000
C    -2.120000000    -4.871000000    -1.152000000
H    -1.122000000    -5.298000000    -1.098000000
C    -1.959000000    -3.699000000     1.117000000
O    -2.745000000    -3.594000000     2.315000000
H    -1.391000000    -2.798000000     0.841000000
O    -0.853000000    -4.599000000     1.391000000
C     0.375000000    -4.078000000     1.718000000
C     1.366000000    -4.186000000     0.723000000
H     1.080000000    -4.436000000    -0.295000000
C     2.640000000    -3.680000000     1.098000000
O     3.586000000    -3.512000000     0.126000000
C     2.917000000    -3.174000000     2.397000000
C     4.267000000    -2.546000000     2.779000000
H     4.336000000    -2.693000000     3.859000000
C     4.307000000    -1.100000000     2.392000000
C     3.852000000    -0.167000000     3.349000000
H     3.730000000    -0.512000000     4.373000000
H     5.054000000    -3.050000000     2.215000000
C     1.913000000    -3.224000000     3.380000000
H     2.000000000    -2.826000000     4.388000000
C     0.655000000    -3.718000000     3.057000000
C    -0.422000000    -3.723000000     4.165000000
H     0.139000000    -3.642000000     5.099000000
H    -0.909000000    -4.691000000     4.304000000
C    -1.373000000    -2.547000000     4.055000000
C    -1.169000000    -1.375000000     4.837000000
H    -0.327000000    -1.323000000     5.524000000
C    -2.459000000    -2.596000000     3.220000000
C    -3.165000000    -1.453000000     2.985000000
H    -3.943000000    -1.463000000     2.227000000
C    -2.955000000    -0.228000000     3.656000000
O    -3.646000000     0.857000000     3.201000000
C    -2.985000000     1.804000000     2.415000000
C    -3.829000000     2.324000000     1.210000000
C    -3.875000000     3.702000000     0.887000000
H    -3.333000000     4.443000000     1.469000000
C    -4.452000000     1.426000000     0.345000000
H    -4.419000000     0.344000000     0.446000000
O    -2.549000000     2.924000000     3.179000000
H    -2.128000000     1.298000000     1.947000000
C    -1.946000000    -0.230000000     4.604000000
C    -1.594000000     1.034000000     5.363000000
H    -1.050000000     0.697000000     6.248000000
H    -2.411000000     1.574000000     5.846000000
C    -0.717000000     1.914000000     4.588000000
C     0.634000000     1.676000000     4.721000000
H     0.929000000     0.933000000     5.457000000
C    -1.203000000     2.898000000     3.627000000
C    -0.258000000     3.540000000     2.812000000
H    -0.717000000     4.214000000     2.093000000
C     1.106000000     3.297000000     2.905000000
O     1.916000000     4.036000000     2.059000000
C     2.561000000     3.290000000     0.975000000
C     2.298000000     3.958000000    -0.318000000
C     1.176000000     4.830000000    -0.462000000
H     0.553000000     5.121000000     0.380000000
C     3.118000000     3.685000000    -1.361000000
H     3.884000000     2.921000000    -1.253000000
O     3.888000000     2.847000000     1.295000000
H     1.845000000     2.457000000     0.919000000
C     1.545000000     2.374000000     3.889000000
C     3.029000000     2.271000000     4.027000000
H     3.334000000     1.939000000     5.021000000
H     3.582000000     3.213000000     4.051000000
C     3.678000000     1.171000000     3.043000000
C     4.043000000     1.525000000     1.748000000
C     4.437000000     0.660000000     0.804000000
H     4.544000000     1.009000000    -0.220000000
C     4.644000000    -0.693000000     1.122000000
O     5.010000000    -1.610000000     0.211000000
C     3.868000000    -2.238000000    -0.424000000
H     3.084000000    -1.487000000    -0.241000000
C     3.900000000    -2.301000000    -1.901000000
C     3.116000000    -3.231000000    -2.641000000
H     2.455000000    -3.897000000    -2.092000000
C     4.733000000    -1.427000000    -2.613000000
H     5.451000000    -0.754000000    -2.151000000
C     4.758000000    -1.501000000    -3.978000000
O     5.653000000    -0.651000000    -4.626000000
C     3.887000000    -2.366000000    -4.652000000
H     3.904000000    -2.379000000    -5.739000000
C     3.013000000    -3.187000000    -4.015000000
O     2.029000000    -3.811000000    -4.748000000
C     1.179000000    -4.787000000    -4.226000000
C    -0.157000000    -4.563000000    -3.961000000
H    -0.518000000    -3.576000000    -4.238000000
C     1.659000000    -6.044000000    -4.002000000
H     2.714000000    -6.248000000    -4.163000000
C     0.866000000    -7.123000000    -3.632000000
H     1.252000000    -8.108000000    -3.381000000
C    -0.504000000    -6.886000000    -3.376000000
H    -1.178000000    -7.688000000    -3.086000000
C    -1.002000000    -5.654000000    -3.614000000
O    -2.356000000    -5.488000000    -3.501000000
C    -2.846000000    -5.027000000    -2.323000000
C    -4.189000000    -4.642000000    -2.432000000
H    -4.657000000    -4.850000000    -3.391000000
C    -4.808000000    -3.994000000    -1.352000000
O    -6.123000000    -3.655000000    -1.360000000
C    -6.650000000    -2.388000000    -1.169000000
C    -5.820000000    -1.314000000    -1.588000000
H    -4.896000000    -1.546000000    -2.111000000
C    -7.855000000    -2.152000000    -0.542000000
H    -8.472000000    -2.941000000    -0.120000000
C    -8.274000000    -0.816000000    -0.300000000
H    -9.189000000    -0.549000000     0.223000000
C    -7.497000000     0.193000000    -0.800000000
H    -7.831000000     1.211000000    -0.616000000
C    -6.284000000    -0.051000000    -1.523000000
O    -5.450000000     0.934000000    -1.799000000
C    -5.155000000     1.881000000    -0.799000000
C    -5.079000000     3.252000000    -1.158000000
H    -5.484000000     3.642000000    -2.088000000
C    -4.455000000     4.159000000    -0.284000000
O    -4.516000000     5.476000000    -0.610000000
C    -3.380000000     6.289000000    -0.575000000
C    -2.295000000     5.939000000    -1.315000000
H    -2.235000000     4.976000000    -1.817000000
C    -3.436000000     7.428000000     0.210000000
H    -4.432000000     7.619000000     0.602000000
C    -2.284000000     8.241000000     0.257000000
H    -2.230000000     9.089000000     0.935000000
C    -1.106000000     7.875000000    -0.401000000
H    -0.222000000     8.503000000    -0.327000000
C    -1.149000000     6.719000000    -1.233000000
O    -0.073000000     6.265000000    -1.998000000
C     0.963000000     5.338000000    -1.764000000
C     1.844000000     5.041000000    -2.809000000
H     1.574000000     5.513000000    -3.750000000
C     2.898000000     4.147000000    -2.645000000
O     3.580000000     3.648000000    -3.721000000
C     4.703000000     2.885000000    -3.876000000
C     5.965000000     3.504000000    -3.809000000
H     6.105000000     4.575000000    -3.685000000
C     7.132000000     2.705000000    -4.005000000
H     8.084000000     3.219000000    -4.106000000
C     7.030000000     1.360000000    -4.321000000
H     7.974000000     0.829000000    -4.410000000
C     5.770000000     0.717000000    -4.403000000
C     4.591000000     1.503000000    -4.117000000
H     3.638000000     1.069000000    -4.409000000
C     0.313000000    -0.849000000    -2.209000000
H     0.523000000    -1.614000000    -2.952000000
C     0.538000000    -1.131000000    -0.842000000
H     0.757000000    -2.153000000    -0.541000000
C     0.265000000    -0.182000000     0.169000000
H     0.228000000    -0.354000000     1.184000000
C    -0.159000000     1.112000000    -0.197000000
H    -0.253000000     1.936000000     0.505000000
C    -0.302000000     1.425000000    -1.536000000
H    -0.486000000     2.459000000    -1.816000000
C    -0.077000000     0.441000000    -2.532000000
C    -0.307000000     0.813000000    -3.979000000
O    -0.463000000     1.998000000    -4.258000000
O    -0.144000000     0.030000000    -4.921000000
O     3.171000000     3.595000000    -8.593000000
H     4.119000000     3.724000000    -8.558000000
H     3.051000000     2.660000000    -8.425000000
O     1.102000000     3.503000000    -5.559000000
H     0.565000000     2.976000000    -4.967000000
H     1.960000000     3.539000000    -5.136000000
O    -3.840000000     0.101000000    -4.105000000
H    -3.356000000     0.646000000    -4.725000000
H    -3.634000000     0.472000000    -3.247000000
O    -4.288000000    -2.416000000    -5.082000000
H    -3.894000000    -1.759000000    -4.508000000
H    -4.962000000    -1.938000000    -5.566000000
O     0.551000000    -4.031000000    -7.984000000
H     0.239000000    -3.199000000    -7.629000000
H     1.504000000    -3.985000000    -7.899000000
O     4.283000000    -0.475000000    -7.599000000
H     4.928000000     0.226000000    -7.504000000
H     3.463000000    -0.088000000    -7.291000000
O    -2.581000000    -3.570000000    -6.713000000
H    -3.244000000    -3.230000000    -6.113000000
H    -1.833000000    -2.983000000    -6.601000000
O    -3.124000000    -0.275000000    -9.728000000
H    -3.203000000    -0.404000000    -8.783000000
H    -2.408000000     0.354000000    -9.825000000
O     1.053000000     5.068000000    -7.878000000
H     1.839000000     4.552000000    -8.059000000
H     0.719000000     4.715000000    -7.053000000
O     2.080000000     0.887000000    -6.468000000
H     1.750000000     1.784000000    -6.415000000
H     1.408000000     0.359000000    -6.036000000
O    -2.685000000     1.930000000    -5.616000000
H    -1.825000000     2.019000000    -5.205000000
H    -2.647000000     2.506000000    -6.380000000
O     0.010000000     3.006000000    -9.487000000
H     0.134000000     3.900000000    -9.168000000
H     0.297000000     3.035000000   -10.400000000
O    -0.664000000     0.734000000    -8.107000000
H    -0.317000000     1.376000000    -8.727000000
H    -0.615000000     1.172000000    -7.257000000
O    -1.764000000     4.540000000    -4.362000000
H    -1.470000000     4.566000000    -5.272000000
H    -1.338000000     3.765000000    -3.995000000
O    -4.457000000     4.091000000    -4.679000000
H    -3.603000000     4.469000000    -4.470000000
H    -4.274000000     3.169000000    -4.857000000
O     0.868000000    -0.784000000   -10.074000000
H     0.226000000    -0.582000000    -9.393000000
H     0.383000000    -0.696000000   -10.894000000
O    -2.407000000     3.861000000    -7.552000000
H    -1.719000000     3.779000000    -8.213000000
H    -2.902000000     4.636000000    -7.817000000
O    -6.744000000     1.015000000    -6.379000000
H    -6.915000000     1.112000000    -7.316000000
H    -6.026000000     0.384000000    -6.331000000
O    -0.579000000    -1.784000000    -6.675000000
H    -0.421000000    -1.251000000    -5.897000000
H    -0.762000000    -1.149000000    -7.368000000
