215
-1453.31596
C    -3.703000000    -3.921000000    -1.303000000
H    -4.390000000    -3.263000000    -0.777000000
C    -2.425000000    -4.217000000    -0.778000000
C    -1.553000000    -4.886000000    -1.606000000
H    -0.521000000    -4.983000000    -1.280000000
C    -2.037000000    -3.663000000     0.596000000
O    -3.209000000    -3.432000000     1.451000000
H    -1.518000000    -2.711000000     0.410000000
O    -1.191000000    -4.644000000     1.217000000
C    -0.196000000    -4.204000000     1.990000000
C     1.085000000    -4.256000000     1.422000000
H     1.217000000    -4.669000000     0.425000000
C     2.155000000    -3.662000000     2.089000000
O     3.322000000    -3.465000000     1.375000000
C     1.952000000    -3.097000000     3.384000000
C     3.016000000    -2.349000000     4.060000000
H     2.891000000    -2.362000000     5.144000000
C     3.032000000    -0.879000000     3.611000000
C     2.402000000     0.187000000     4.263000000
H     1.773000000    -0.001000000     5.129000000
H     4.021000000    -2.752000000     3.918000000
C     0.692000000    -3.184000000     3.977000000
H     0.504000000    -2.672000000     4.917000000
C    -0.373000000    -3.721000000     3.278000000
C    -1.748000000    -3.477000000     3.912000000
H    -1.632000000    -3.525000000     4.997000000
H    -2.296000000    -4.374000000     3.616000000
C    -2.530000000    -2.285000000     3.385000000
C    -2.535000000    -1.079000000     4.118000000
H    -2.172000000    -1.150000000     5.140000000
C    -3.222000000    -2.232000000     2.191000000
C    -3.896000000    -1.124000000     1.707000000
H    -4.448000000    -1.228000000     0.777000000
C    -3.826000000     0.070000000     2.351000000
O    -4.310000000     1.154000000     1.725000000
C    -3.323000000     1.958000000     1.140000000
C    -3.744000000     2.326000000    -0.282000000
C    -3.379000000     3.553000000    -0.890000000
H    -2.968000000     4.350000000    -0.275000000
C    -4.349000000     1.381000000    -1.073000000
H    -4.635000000     0.447000000    -0.597000000
O    -3.105000000     3.080000000     2.048000000
H    -2.372000000     1.405000000     1.124000000
C    -3.132000000     0.070000000     3.614000000
C    -3.097000000     1.327000000     4.399000000
H    -2.914000000     1.042000000     5.437000000
H    -4.096000000     1.765000000     4.347000000
C    -1.970000000     2.201000000     3.998000000
C    -0.773000000     2.060000000     4.694000000
H    -0.742000000     1.303000000     5.473000000
C    -2.067000000     3.018000000     2.895000000
C    -1.038000000     3.799000000     2.451000000
H    -1.028000000     4.526000000     1.643000000
C     0.197000000     3.666000000     3.086000000
O     1.333000000     4.249000000     2.551000000
C     2.142000000     3.569000000     1.578000000
C     2.344000000     4.355000000     0.239000000
C     1.499000000     5.330000000    -0.202000000
H     0.721000000     5.646000000     0.488000000
C     3.413000000     3.939000000    -0.536000000
H     4.023000000     3.138000000    -0.127000000
O     3.279000000     3.209000000     2.358000000
H     1.578000000     2.674000000     1.278000000
C     0.334000000     2.772000000     4.196000000
C     1.777000000     2.504000000     4.783000000
H     1.690000000     2.308000000     5.854000000
H     2.324000000     3.448000000     4.790000000
C     2.540000000     1.517000000     3.963000000
C     3.286000000     1.896000000     2.872000000
C     3.900000000     0.902000000     2.064000000
H     4.460000000     1.200000000     1.181000000
C     3.684000000    -0.460000000     2.419000000
O     4.349000000    -1.368000000     1.594000000
C     3.501000000    -2.184000000     0.805000000
H     2.574000000    -1.649000000     0.551000000
C     4.133000000    -2.405000000    -0.592000000
C     3.656000000    -3.370000000    -1.552000000
H     2.934000000    -4.086000000    -1.169000000
C     5.121000000    -1.496000000    -1.040000000
H     5.617000000    -0.818000000    -0.351000000
C     5.525000000    -1.513000000    -2.348000000
O     6.262000000    -0.523000000    -2.894000000
C     5.017000000    -2.420000000    -3.215000000
H     5.344000000    -2.295000000    -4.244000000
C     4.128000000    -3.438000000    -2.840000000
O     3.535000000    -4.261000000    -3.758000000
C     2.617000000    -5.250000000    -3.431000000
C     1.249000000    -5.051000000    -3.746000000
H     0.923000000    -4.079000000    -4.105000000
C     3.041000000    -6.520000000    -3.001000000
H     4.099000000    -6.623000000    -2.777000000
C     2.138000000    -7.574000000    -2.826000000
H     2.445000000    -8.504000000    -2.353000000
C     0.757000000    -7.334000000    -3.106000000
H     0.054000000    -8.157000000    -3.009000000
C     0.323000000    -6.009000000    -3.508000000
O    -1.000000000    -5.752000000    -3.754000000
C    -1.900000000    -5.280000000    -2.910000000
C    -3.211000000    -5.129000000    -3.328000000
H    -3.428000000    -5.377000000    -4.364000000
C    -4.066000000    -4.352000000    -2.574000000
O    -5.288000000    -4.090000000    -3.114000000
C    -5.920000000    -2.876000000    -2.871000000
C    -5.261000000    -1.656000000    -3.226000000
H    -4.254000000    -1.723000000    -3.629000000
C    -7.231000000    -2.871000000    -2.319000000
H    -7.800000000    -3.790000000    -2.196000000
C    -7.902000000    -1.615000000    -2.280000000
H    -8.939000000    -1.635000000    -1.955000000
C    -7.228000000    -0.470000000    -2.441000000
H    -7.699000000     0.492000000    -2.255000000
C    -5.903000000    -0.438000000    -2.979000000
O    -5.239000000     0.750000000    -3.356000000
C    -4.625000000     1.604000000    -2.487000000
C    -4.283000000     2.866000000    -2.922000000
H    -4.690000000     3.117000000    -3.898000000
C    -3.617000000     3.834000000    -2.199000000
O    -3.324000000     5.093000000    -2.798000000
C    -2.614000000     6.076000000    -2.229000000
C    -1.245000000     5.976000000    -2.360000000
H    -0.812000000     5.115000000    -2.863000000
C    -3.262000000     7.145000000    -1.636000000
H    -4.348000000     7.156000000    -1.682000000
C    -2.538000000     8.213000000    -1.154000000
H    -3.108000000     9.060000000    -0.782000000
C    -1.122000000     8.081000000    -1.143000000
H    -0.547000000     8.937000000    -0.801000000
C    -0.464000000     7.023000000    -1.812000000
O     0.929000000     6.962000000    -1.898000000
C     1.762000000     5.925000000    -1.475000000
C     2.822000000     5.459000000    -2.297000000
H     3.069000000     5.902000000    -3.259000000
C     3.633000000     4.511000000    -1.742000000
O     4.681000000     4.111000000    -2.603000000
C     5.552000000     3.073000000    -2.256000000
C     6.563000000     3.314000000    -1.332000000
H     6.622000000     4.295000000    -0.868000000
C     7.496000000     2.340000000    -1.012000000
H     8.261000000     2.506000000    -0.259000000
C     7.421000000     1.117000000    -1.611000000
H     8.183000000     0.383000000    -1.364000000
C     6.294000000     0.780000000    -2.383000000
C     5.416000000     1.745000000    -2.764000000
H     4.638000000     1.565000000    -3.500000000
C    -0.162000000    -1.146000000    -2.431000000
H    -0.230000000    -2.149000000    -2.844000000
C     0.202000000    -0.980000000    -1.075000000
H     0.485000000    -1.855000000    -0.495000000
C     0.127000000     0.220000000    -0.366000000
H     0.569000000     0.337000000     0.679000000
C    -0.408000000     1.321000000    -1.026000000
H    -0.557000000     2.261000000    -0.501000000
C    -0.787000000     1.210000000    -2.335000000
H    -1.123000000     2.099000000    -2.862000000
C    -0.735000000    -0.001000000    -3.040000000
C    -1.245000000    -0.073000000    -4.473000000
O    -1.888000000     0.781000000    -5.074000000
O    -0.889000000    -1.027000000    -5.126000000
O    -3.592000000     1.621000000    -6.884000000
H    -3.319000000     2.538000000    -6.860000000
H    -2.984000000     1.175000000    -6.294000000
O    -3.780000000    -0.459000000   -10.279000000
H    -4.640000000    -0.120000000   -10.030000000
H    -3.703000000    -1.287000000    -9.806000000
O     0.267000000    -1.497000000    -8.597000000
H     0.344000000    -2.016000000    -9.398000000
H    -0.100000000    -2.103000000    -7.953000000
O    -0.293000000     0.737000000    -7.243000000
H    -0.724000000     0.293000000    -6.512000000
H     0.012000000     0.027000000    -7.808000000
O    -3.105000000    -3.075000000    -9.143000000
H    -3.166000000    -2.884000000    -8.207000000
H    -2.632000000    -3.906000000    -9.188000000
O    -7.362000000     2.250000000    -5.168000000
H    -7.049000000     3.041000000    -5.607000000
H    -6.599000000     1.925000000    -4.689000000
O    -0.602000000     5.962000000    -6.884000000
H    -0.417000000     5.436000000    -6.106000000
H    -1.102000000     6.710000000    -6.555000000
O    -6.394000000    -0.693000000    -8.636000000
H    -6.016000000    -0.816000000    -7.765000000
H    -7.237000000    -0.269000000    -8.473000000
O    -3.435000000    -1.886000000    -6.444000000
H    -4.180000000    -1.312000000    -6.263000000
H    -2.753000000    -1.590000000    -5.842000000
O    -0.818000000    -0.012000000   -10.807000000
H    -0.286000000    -0.050000000   -10.012000000
H    -1.653000000     0.356000000   -10.519000000
O    -2.405000000     4.845000000    -8.483000000
H    -1.895000000     4.108000000    -8.818000000
H    -1.850000000     5.231000000    -7.805000000
O     1.804000000     2.232000000    -7.715000000
H     0.971000000     1.778000000    -7.590000000
H     2.211000000     2.229000000    -6.849000000
O    -0.220000000    -3.149000000    -6.283000000
H    -0.345000000    -2.329000000    -5.805000000
H    -0.447000000    -3.832000000    -5.652000000
O    -4.648000000     2.344000000    -9.299000000
H    -4.406000000     2.255000000    -8.377000000
H    -3.829000000     2.568000000    -9.741000000
O    -5.496000000    -0.376000000    -6.195000000
H    -4.967000000     0.417000000    -6.288000000
H    -6.270000000    -0.092000000    -5.709000000
O     3.421000000    -1.904000000    -6.952000000
H     2.976000000    -1.543000000    -6.186000000
H     3.072000000    -1.404000000    -7.690000000
O    -5.225000000    -4.127000000    -6.373000000
H    -5.956000000    -4.096000000    -5.756000000
H    -4.673000000    -3.384000000    -6.129000000
O     2.277000000    -0.393000000    -4.658000000
H     1.345000000    -0.465000000    -4.864000000
H     2.338000000    -0.648000000    -3.737000000
O    -1.715000000     3.636000000    -5.275000000
H    -2.215000000     3.598000000    -4.460000000
H    -1.397000000     2.742000000    -5.403000000
