215
-1449.75036
C    -2.846000000    -3.485000000    -3.209000000
H    -3.728000000    -2.903000000    -2.955000000
C    -2.051000000    -4.035000000    -2.203000000
C    -0.895000000    -4.645000000    -2.540000000
H    -0.323000000    -5.074000000    -1.721000000
C    -2.381000000    -3.748000000    -0.789000000
O    -3.757000000    -3.459000000    -0.574000000
H    -1.848000000    -2.802000000    -0.615000000
O    -1.945000000    -4.833000000     0.118000000
C    -1.309000000    -4.599000000     1.266000000
C     0.076000000    -4.653000000     1.271000000
H     0.638000000    -5.141000000     0.478000000
C     0.823000000    -4.090000000     2.321000000
O     2.190000000    -3.952000000     2.117000000
C     0.193000000    -3.490000000     3.391000000
C     0.964000000    -2.978000000     4.607000000
H     0.176000000    -3.001000000     5.363000000
C     1.398000000    -1.490000000     4.516000000
C     0.583000000    -0.502000000     5.009000000
H    -0.312000000    -0.756000000     5.570000000
H     1.722000000    -3.741000000     4.798000000
C    -1.197000000    -3.359000000     3.317000000
H    -1.763000000    -2.620000000     3.879000000
C    -1.962000000    -4.021000000     2.363000000
C    -3.427000000    -3.935000000     2.319000000
H    -3.789000000    -4.057000000     3.342000000
H    -3.896000000    -4.752000000     1.766000000
C    -3.791000000    -2.607000000     1.698000000
C    -3.942000000    -1.469000000     2.567000000
H    -3.856000000    -1.569000000     3.646000000
C    -4.090000000    -2.461000000     0.299000000
C    -4.299000000    -1.117000000    -0.187000000
H    -4.464000000    -0.878000000    -1.234000000
C    -4.507000000    -0.067000000     0.649000000
O    -4.702000000     1.117000000    -0.004000000
C    -3.572000000     1.999000000    -0.098000000
C    -3.483000000     2.782000000    -1.378000000
C    -3.157000000     4.085000000    -1.469000000
H    -3.137000000     4.766000000    -0.622000000
C    -3.610000000     1.995000000    -2.549000000
H    -3.877000000     0.948000000    -2.428000000
O    -3.774000000     2.949000000     0.957000000
H    -2.596000000     1.511000000     0.042000000
C    -4.273000000    -0.212000000     2.042000000
C    -4.514000000     0.963000000     2.921000000
H    -4.642000000     0.610000000     3.946000000
H    -5.370000000     1.535000000     2.556000000
C    -3.284000000     1.945000000     3.018000000
C    -2.428000000     1.803000000     4.098000000
H    -2.673000000     0.949000000     4.725000000
C    -3.004000000     2.915000000     2.090000000
C    -1.790000000     3.619000000     2.141000000
H    -1.571000000     4.328000000     1.347000000
C    -0.887000000     3.309000000     3.141000000
O     0.328000000     3.942000000     3.050000000
C     1.281000000     3.137000000     2.406000000
C     2.165000000     4.027000000     1.465000000
C     1.599000000     4.853000000     0.490000000
H     0.530000000     5.051000000     0.488000000
C     3.550000000     3.813000000     1.447000000
H     4.036000000     3.092000000     2.100000000
O     2.024000000     2.389000000     3.370000000
H     0.704000000     2.470000000     1.748000000
C    -1.163000000     2.417000000     4.177000000
C    -0.107000000     1.941000000     5.197000000
H    -0.588000000     1.612000000     6.121000000
H     0.497000000     2.777000000     5.553000000
C     0.798000000     0.820000000     4.633000000
C     1.832000000     1.151000000     3.791000000
C     2.701000000     0.140000000     3.398000000
H     3.558000000     0.423000000     2.793000000
C     2.498000000    -1.174000000     3.735000000
O     3.266000000    -2.167000000     3.146000000
C     2.674000000    -2.609000000     1.905000000
H     1.887000000    -1.902000000     1.604000000
C     3.901000000    -2.565000000     0.893000000
C     3.868000000    -3.525000000    -0.136000000
H     3.201000000    -4.382000000    -0.161000000
C     4.817000000    -1.448000000     0.762000000
H     4.706000000    -0.621000000     1.457000000
C     5.676000000    -1.418000000    -0.330000000
O     6.586000000    -0.405000000    -0.519000000
C     5.664000000    -2.388000000    -1.285000000
H     6.277000000    -2.299000000    -2.179000000
C     4.767000000    -3.443000000    -1.241000000
O     4.870000000    -4.443000000    -2.124000000
C     3.835000000    -5.299000000    -2.403000000
C     2.804000000    -4.981000000    -3.273000000
H     2.854000000    -4.109000000    -3.920000000
C     3.724000000    -6.472000000    -1.677000000
H     4.562000000    -6.768000000    -1.051000000
C     2.618000000    -7.335000000    -1.726000000
H     2.575000000    -8.200000000    -1.070000000
C     1.532000000    -6.864000000    -2.497000000
H     0.686000000    -7.540000000    -2.592000000
C     1.729000000    -5.805000000    -3.388000000
O     0.709000000    -5.472000000    -4.235000000
C    -0.440000000    -4.800000000    -3.877000000
C    -1.152000000    -4.197000000    -4.869000000
H    -0.796000000    -4.136000000    -5.894000000
C    -2.334000000    -3.505000000    -4.505000000
O    -3.051000000    -2.901000000    -5.528000000
C    -3.905000000    -1.806000000    -5.425000000
C    -3.343000000    -0.543000000    -5.006000000
H    -2.296000000    -0.462000000    -4.724000000
C    -5.283000000    -1.948000000    -5.751000000
H    -5.587000000    -2.871000000    -6.237000000
C    -5.988000000    -0.741000000    -5.905000000
H    -6.935000000    -0.758000000    -6.438000000
C    -5.440000000     0.474000000    -5.571000000
H    -6.014000000     1.390000000    -5.694000000
C    -4.148000000     0.606000000    -5.098000000
O    -3.641000000     1.865000000    -4.945000000
C    -3.521000000     2.587000000    -3.819000000
C    -3.310000000     3.979000000    -3.862000000
H    -3.308000000     4.469000000    -4.832000000
C    -3.062000000     4.717000000    -2.670000000
O    -2.728000000     6.007000000    -2.726000000
C    -1.728000000     6.606000000    -2.053000000
C    -0.384000000     6.111000000    -2.065000000
H    -0.025000000     5.328000000    -2.728000000
C    -2.032000000     7.731000000    -1.309000000
H    -3.038000000     8.128000000    -1.417000000
C    -1.084000000     8.399000000    -0.606000000
H    -1.374000000     9.335000000    -0.136000000
C     0.168000000     7.881000000    -0.568000000
H     0.949000000     8.379000000     0.000000000
C     0.546000000     6.830000000    -1.385000000
O     1.864000000     6.336000000    -1.447000000
C     2.435000000     5.541000000    -0.444000000
C     3.795000000     5.277000000    -0.443000000
H     4.401000000     5.711000000    -1.234000000
C     4.353000000     4.501000000     0.552000000
O     5.696000000     4.199000000     0.384000000
C     6.284000000     2.999000000     0.717000000
C     6.937000000     2.942000000     1.912000000
H     6.977000000     3.833000000     2.533000000
C     7.557000000     1.771000000     2.341000000
H     8.184000000     1.775000000     3.229000000
C     7.409000000     0.656000000     1.523000000
H     7.806000000    -0.280000000     1.907000000
C     6.778000000     0.717000000     0.290000000
C     6.112000000     1.864000000    -0.103000000
H     5.578000000     1.926000000    -1.047000000
C     0.851000000    -1.786000000    -2.457000000
H     1.487000000    -2.573000000    -2.854000000
C     0.674000000    -1.680000000    -1.068000000
H     0.961000000    -2.570000000    -0.515000000
C    -0.059000000    -0.614000000    -0.522000000
H    -0.335000000    -0.519000000     0.493000000
C    -0.387000000     0.398000000    -1.318000000
H    -0.703000000     1.361000000    -0.925000000
C    -0.156000000     0.292000000    -2.713000000
H    -0.448000000     1.140000000    -3.327000000
C     0.350000000    -0.858000000    -3.344000000
C     0.747000000    -0.866000000    -4.758000000
O     0.136000000    -0.138000000    -5.528000000
O     1.860000000    -1.364000000    -5.080000000
O     3.583000000    -0.370000000    -3.261000000
H     3.053000000    -0.612000000    -2.501000000
H     3.250000000    -0.920000000    -3.970000000
O     1.822000000     4.234000000    -3.578000000
H     2.344000000     3.436000000    -3.664000000
H     2.402000000     4.852000000    -3.134000000
O    -0.477000000     2.495000000    -5.857000000
H    -1.279000000     2.757000000    -5.405000000
H    -0.404000000     1.555000000    -5.690000000
O     3.966000000    -2.981000000    -9.316000000
H     3.460000000    -3.100000000    -8.512000000
H     4.857000000    -3.238000000    -9.079000000
O     5.563000000    -3.181000000    -7.189000000
H     6.243000000    -3.852000000    -7.130000000
H     5.999000000    -2.373000000    -6.918000000
O     2.850000000     1.390000000    -6.357000000
H     2.159000000     0.768000000    -6.131000000
H     3.382000000     1.457000000    -5.564000000
O     4.864000000     1.006000000    -8.535000000
H     4.298000000     1.336000000    -7.837000000
H     4.284000000     0.921000000    -9.293000000
O     0.294000000    -6.092000000    -9.191000000
H    -0.307000000    -6.467000000    -9.835000000
H    -0.046000000    -5.212000000    -9.030000000
O     0.982000000    -0.763000000   -11.150000000
H     1.788000000    -0.308000000   -10.907000000
H     0.283000000    -0.239000000   -10.757000000
O     0.115000000    -3.337000000   -11.297000000
H     0.611000000    -2.525000000   -11.394000000
H     0.286000000    -3.617000000   -10.398000000
O     1.168000000     5.572000000    -5.902000000
H     1.115000000     5.066000000    -5.091000000
H     0.329000000     6.030000000    -5.954000000
O     6.266000000    -0.589000000    -6.853000000
H     5.596000000    -0.255000000    -7.449000000
H     6.652000000     0.195000000    -6.463000000
O     0.414000000    -3.174000000    -8.741000000
H     1.268000000    -3.133000000    -8.311000000
H    -0.070000000    -2.430000000    -8.382000000
O    -1.013000000    -0.995000000    -7.557000000
H    -1.928000000    -1.107000000    -7.299000000
H    -0.576000000    -0.689000000    -6.763000000
O     2.664000000    -3.372000000    -6.763000000
H     2.268000000    -2.663000000    -6.257000000
H     3.582000000    -3.375000000    -6.493000000
O     1.123000000     2.568000000    -8.052000000
H     1.752000000     2.005000000    -7.602000000
H     0.443000000     2.738000000    -7.399000000
O     4.317000000     2.161000000    -3.659000000
H     4.990000000     2.437000000    -3.038000000
H     4.141000000     1.248000000    -3.431000000
O     5.117000000     4.698000000    -5.299000000
H     4.808000000     4.601000000    -6.200000000
H     4.731000000     3.956000000    -4.832000000
O    -0.742000000     0.927000000    -9.892000000
H     0.097000000     1.377000000    -9.794000000
H    -0.884000000     0.498000000    -9.048000000
