215
-1453.50277
C    -2.327000000    -3.124000000    -3.384000000
H    -3.117000000    -2.459000000    -3.045000000
C    -1.619000000    -3.849000000    -2.404000000
C    -0.655000000    -4.688000000    -2.761000000
H    -0.090000000    -5.247000000    -2.019000000
C    -2.062000000    -3.672000000    -0.955000000
O    -3.542000000    -3.543000000    -0.790000000
H    -1.527000000    -2.788000000    -0.577000000
O    -1.672000000    -4.778000000    -0.169000000
C    -1.057000000    -4.468000000     1.071000000
C     0.281000000    -4.383000000     1.019000000
H     0.935000000    -4.866000000     0.297000000
C     0.948000000    -3.898000000     2.109000000
O     2.307000000    -3.784000000     2.061000000
C     0.289000000    -3.503000000     3.248000000
C     0.973000000    -2.896000000     4.489000000
H     0.267000000    -3.017000000     5.314000000
C     1.313000000    -1.378000000     4.434000000
C     0.421000000    -0.426000000     4.911000000
H    -0.545000000    -0.722000000     5.313000000
H     1.921000000    -3.373000000     4.748000000
C    -1.104000000    -3.610000000     3.276000000
H    -1.595000000    -3.344000000     4.208000000
C    -1.779000000    -4.145000000     2.160000000
C    -3.280000000    -4.115000000     2.150000000
H    -3.716000000    -4.113000000     3.151000000
H    -3.639000000    -4.973000000     1.577000000
C    -3.689000000    -2.786000000     1.541000000
C    -4.106000000    -1.808000000     2.458000000
H    -4.187000000    -1.891000000     3.539000000
C    -3.913000000    -2.626000000     0.185000000
C    -4.226000000    -1.397000000    -0.331000000
H    -4.279000000    -1.152000000    -1.389000000
C    -4.510000000    -0.309000000     0.510000000
O    -4.725000000     0.875000000    -0.127000000
C    -3.663000000     1.852000000    -0.134000000
C    -3.623000000     2.592000000    -1.479000000
C    -3.463000000     3.933000000    -1.545000000
H    -3.405000000     4.445000000    -0.588000000
C    -3.920000000     1.899000000    -2.704000000
H    -4.082000000     0.824000000    -2.700000000
O    -3.930000000     2.778000000     0.896000000
H    -2.657000000     1.419000000    -0.038000000
C    -4.447000000    -0.505000000     1.933000000
C    -4.580000000     0.649000000     2.881000000
H    -4.837000000     0.326000000     3.892000000
H    -5.486000000     1.186000000     2.593000000
C    -3.379000000     1.586000000     2.900000000
C    -2.509000000     1.439000000     3.949000000
H    -2.775000000     0.726000000     4.726000000
C    -3.180000000     2.623000000     2.012000000
C    -2.104000000     3.430000000     2.127000000
H    -2.044000000     4.230000000     1.393000000
C    -1.149000000     3.301000000     3.139000000
O     0.038000000     3.973000000     3.036000000
C     1.220000000     3.124000000     2.637000000
C     2.072000000     3.851000000     1.522000000
C     1.446000000     4.662000000     0.557000000
H     0.371000000     4.793000000     0.644000000
C     3.425000000     3.680000000     1.510000000
H     3.942000000     3.009000000     2.191000000
O     1.994000000     2.737000000     3.861000000
H     0.812000000     2.256000000     2.098000000
C    -1.402000000     2.299000000     4.120000000
C    -0.365000000     1.989000000     5.255000000
H    -0.885000000     1.719000000     6.176000000
H     0.172000000     2.916000000     5.468000000
C     0.693000000     0.964000000     4.834000000
C     1.892000000     1.373000000     4.223000000
C     2.790000000     0.445000000     3.733000000
H     3.627000000     0.808000000     3.142000000
C     2.473000000    -0.905000000     3.752000000
O     3.249000000    -1.858000000     3.143000000
C     2.851000000    -2.456000000     1.891000000
H     1.976000000    -1.855000000     1.603000000
C     3.918000000    -2.373000000     0.797000000
C     3.771000000    -3.063000000    -0.389000000
H     2.886000000    -3.672000000    -0.554000000
C     5.004000000    -1.517000000     0.960000000
H     5.211000000    -1.024000000     1.907000000
C     5.860000000    -1.212000000    -0.074000000
O     6.944000000    -0.353000000     0.084000000
C     5.740000000    -2.024000000    -1.248000000
H     6.436000000    -1.919000000    -2.076000000
C     4.697000000    -2.963000000    -1.390000000
O     4.648000000    -3.767000000    -2.539000000
C     3.706000000    -4.821000000    -2.646000000
C     2.598000000    -4.733000000    -3.463000000
H     2.500000000    -3.814000000    -4.036000000
C     3.843000000    -5.953000000    -1.835000000
H     4.583000000    -5.990000000    -1.040000000
C     3.028000000    -7.100000000    -1.989000000
H     3.390000000    -8.027000000    -1.553000000
C     1.986000000    -7.040000000    -2.918000000
H     1.372000000    -7.907000000    -3.148000000
C     1.746000000    -5.828000000    -3.577000000
O     0.732000000    -5.623000000    -4.465000000
C    -0.358000000    -4.900000000    -4.111000000
C    -1.040000000    -4.196000000    -5.123000000
H    -0.668000000    -4.265000000    -6.142000000
C    -2.039000000    -3.327000000    -4.761000000
O    -2.651000000    -2.600000000    -5.786000000
C    -3.686000000    -1.672000000    -5.539000000
C    -3.338000000    -0.319000000    -5.525000000
H    -2.328000000     0.010000000    -5.751000000
C    -4.956000000    -2.106000000    -5.199000000
H    -5.258000000    -3.129000000    -4.990000000
C    -5.916000000    -1.099000000    -4.956000000
H    -6.949000000    -1.420000000    -4.853000000
C    -5.564000000     0.199000000    -4.929000000
H    -6.295000000     0.945000000    -4.630000000
C    -4.256000000     0.616000000    -5.198000000
O    -3.946000000     1.920000000    -5.110000000
C    -3.953000000     2.608000000    -3.896000000
C    -3.723000000     4.012000000    -3.944000000
H    -3.884000000     4.484000000    -4.909000000
C    -3.395000000     4.655000000    -2.762000000
O    -3.130000000     5.985000000    -2.783000000
C    -2.022000000     6.438000000    -2.064000000
C    -0.743000000     5.841000000    -2.105000000
H    -0.548000000     4.924000000    -2.656000000
C    -2.172000000     7.683000000    -1.431000000
H    -3.137000000     8.183000000    -1.456000000
C    -1.086000000     8.264000000    -0.750000000
H    -1.156000000     9.269000000    -0.342000000
C     0.168000000     7.583000000    -0.737000000
H     1.004000000     8.083000000    -0.255000000
C     0.334000000     6.414000000    -1.420000000
O     1.589000000     5.882000000    -1.463000000
C     2.203000000     5.317000000    -0.369000000
C     3.558000000     5.222000000    -0.360000000
H     4.151000000     5.747000000    -1.105000000
C     4.165000000     4.404000000     0.592000000
O     5.542000000     4.276000000     0.588000000
C     6.200000000     3.172000000     1.003000000
C     6.882000000     3.216000000     2.225000000
H     7.011000000     4.132000000     2.795000000
C     7.738000000     2.216000000     2.614000000
H     8.284000000     2.172000000     3.553000000
C     7.773000000     1.006000000     1.892000000
H     8.282000000     0.147000000     2.323000000
C     6.991000000     0.895000000     0.774000000
C     6.166000000     1.923000000     0.335000000
H     5.640000000     1.866000000    -0.614000000
C     0.724000000    -1.065000000    -3.122000000
H     0.849000000    -2.086000000    -3.472000000
C     0.406000000    -0.894000000    -1.776000000
H     0.536000000    -1.716000000    -1.077000000
C     0.057000000     0.368000000    -1.270000000
H    -0.230000000     0.590000000    -0.281000000
C     0.158000000     1.497000000    -2.118000000
H    -0.102000000     2.539000000    -1.953000000
C     0.590000000     1.289000000    -3.430000000
H     0.736000000     2.183000000    -4.030000000
C     0.855000000     0.018000000    -4.007000000
C     1.316000000    -0.183000000    -5.412000000
O     1.400000000     0.817000000    -6.107000000
O     1.215000000    -1.315000000    -5.949000000
O     3.281000000     0.518000000    -1.852000000
H     4.010000000     0.044000000    -1.451000000
H     2.535000000    -0.075000000    -1.769000000
O     4.242000000     2.856000000    -3.087000000
H     5.145000000     2.540000000    -3.126000000
H     3.823000000     2.304000000    -2.428000000
O    -0.756000000     2.005000000    -7.232000000
H    -0.679000000     2.955000000    -7.137000000
H    -0.033000000     1.654000000    -6.712000000
O     2.974000000     5.051000000    -6.359000000
H     2.665000000     4.380000000    -6.969000000
H     2.310000000     5.739000000    -6.404000000
O     5.157000000    -2.420000000    -5.932000000
H     5.875000000    -2.800000000    -5.427000000
H     4.997000000    -1.571000000    -5.519000000
O     2.509000000    -0.020000000    -8.226000000
H     2.023000000     0.248000000    -7.446000000
H     2.685000000    -0.951000000    -8.090000000
O     5.163000000     0.311000000    -7.549000000
H     4.975000000     1.030000000    -6.946000000
H     4.362000000     0.214000000    -8.063000000
O     1.887000000    -5.956000000    -7.159000000
H     1.143000000    -5.631000000    -7.667000000
H     2.049000000    -5.273000000    -6.508000000
O     4.111000000     5.479000000    -3.970000000
H     3.664000000     5.333000000    -4.804000000
H     3.985000000     4.664000000    -3.484000000
O     0.962000000     0.053000000   -10.727000000
H     1.427000000     0.274000000    -9.920000000
H     0.362000000    -0.648000000   -10.473000000
O     3.892000000     1.976000000    -5.656000000
H     3.838000000     2.420000000    -4.809000000
H     3.068000000     1.495000000    -5.727000000
O     7.215000000     0.429000000    -5.567000000
H     6.714000000     0.578000000    -6.370000000
H     8.010000000     0.950000000    -5.681000000
O     1.460000000    -2.674000000    -9.463000000
H     1.925000000    -3.326000000    -8.939000000
H     0.858000000    -2.257000000    -8.847000000
O    -0.585000000    -1.422000000    -8.131000000
H    -1.167000000    -2.031000000    -7.675000000
H    -0.032000000    -1.056000000    -7.441000000
O     2.703000000    -3.210000000    -6.996000000
H     2.159000000    -2.481000000    -6.697000000
H     3.592000000    -2.967000000    -6.738000000
O    -0.899000000     4.590000000    -7.306000000
H    -1.044000000     4.859000000    -8.213000000
H    -1.262000000     5.305000000    -6.783000000
O     2.737000000     3.139000000    -8.353000000
H     2.574000000     2.196000000    -8.355000000
H     3.691000000     3.217000000    -8.341000000
O     6.719000000     1.367000000    -2.806000000
H     7.662000000     1.267000000    -2.674000000
H     6.468000000     0.606000000    -3.329000000
O    -2.162000000     0.575000000    -9.134000000
H    -2.070000000     1.081000000    -8.326000000
H    -1.578000000    -0.174000000    -9.016000000
