215
-1447.01480
C    -2.587000000    -2.706000000    -3.305000000
H    -3.178000000    -1.836000000    -3.030000000
C    -2.220000000    -3.642000000    -2.345000000
C    -1.365000000    -4.681000000    -2.776000000
H    -1.143000000    -5.567000000    -2.186000000
C    -2.563000000    -3.383000000    -0.868000000
O    -3.969000000    -3.073000000    -0.685000000
H    -1.923000000    -2.607000000    -0.422000000
O    -2.320000000    -4.596000000     0.010000000
C    -1.727000000    -4.424000000     1.222000000
C    -0.354000000    -4.472000000     1.222000000
H     0.136000000    -4.939000000     0.371000000
C     0.436000000    -4.152000000     2.331000000
O     1.771000000    -4.060000000     2.112000000
C    -0.222000000    -3.553000000     3.458000000
C     0.600000000    -3.041000000     4.590000000
H    -0.107000000    -3.129000000     5.418000000
C     1.049000000    -1.546000000     4.512000000
C     0.376000000    -0.515000000     5.139000000
H    -0.501000000    -0.781000000     5.723000000
H     1.529000000    -3.585000000     4.777000000
C    -1.587000000    -3.367000000     3.359000000
H    -2.044000000    -2.842000000     4.194000000
C    -2.373000000    -3.797000000     2.280000000
C    -3.895000000    -3.523000000     2.236000000
H    -4.230000000    -3.462000000     3.273000000
H    -4.437000000    -4.360000000     1.793000000
C    -4.104000000    -2.209000000     1.491000000
C    -4.238000000    -1.162000000     2.356000000
H    -4.108000000    -1.274000000     3.429000000
C    -4.180000000    -2.022000000     0.111000000
C    -4.370000000    -0.741000000    -0.439000000
H    -4.322000000    -0.606000000    -1.516000000
C    -4.525000000     0.286000000     0.459000000
O    -4.658000000     1.562000000    -0.131000000
C    -3.523000000     2.460000000    -0.052000000
C    -3.207000000     3.218000000    -1.332000000
C    -2.747000000     4.528000000    -1.204000000
H    -2.623000000     5.069000000    -0.269000000
C    -3.457000000     2.701000000    -2.595000000
H    -3.807000000     1.680000000    -2.716000000
O    -3.709000000     3.314000000     1.062000000
H    -2.649000000     1.823000000     0.147000000
C    -4.385000000     0.109000000     1.865000000
C    -4.534000000     1.276000000     2.863000000
H    -4.799000000     0.862000000     3.838000000
H    -5.350000000     1.940000000     2.571000000
C    -3.194000000     1.939000000     3.007000000
C    -2.295000000     1.655000000     4.054000000
H    -2.518000000     0.854000000     4.753000000
C    -2.967000000     3.033000000     2.132000000
C    -1.714000000     3.610000000     2.215000000
H    -1.340000000     4.347000000     1.509000000
C    -0.768000000     3.280000000     3.172000000
O     0.482000000     3.825000000     3.052000000
C     1.512000000     2.961000000     2.571000000
C     2.528000000     3.621000000     1.630000000
C     2.075000000     4.611000000     0.802000000
H     1.086000000     4.993000000     1.041000000
C     3.893000000     3.286000000     1.571000000
H     4.275000000     2.453000000     2.156000000
O     2.117000000     2.400000000     3.712000000
H     0.991000000     2.125000000     2.081000000
C    -1.120000000     2.376000000     4.183000000
C    -0.178000000     2.003000000     5.338000000
H    -0.893000000     1.762000000     6.126000000
H     0.438000000     2.835000000     5.686000000
C     0.663000000     0.818000000     4.908000000
C     1.826000000     1.088000000     4.023000000
C     2.504000000     0.087000000     3.404000000
H     3.300000000     0.237000000     2.679000000
C     2.078000000    -1.245000000     3.608000000
O     2.733000000    -2.209000000     2.895000000
C     2.269000000    -2.788000000     1.686000000
H     1.474000000    -2.101000000     1.359000000
C     3.353000000    -2.985000000     0.618000000
C     3.289000000    -4.019000000    -0.319000000
H     2.607000000    -4.854000000    -0.186000000
C     4.298000000    -1.950000000     0.359000000
H     4.311000000    -0.992000000     0.873000000
C     5.174000000    -1.984000000    -0.719000000
O     6.057000000    -0.946000000    -0.837000000
C     5.121000000    -2.992000000    -1.631000000
H     5.877000000    -3.141000000    -2.398000000
C     4.174000000    -3.952000000    -1.454000000
O     4.323000000    -5.070000000    -2.290000000
C     3.243000000    -5.855000000    -2.720000000
C     2.031000000    -5.376000000    -3.259000000
H     1.940000000    -4.299000000    -3.369000000
C     3.468000000    -7.274000000    -2.728000000
H     4.377000000    -7.823000000    -2.497000000
C     2.411000000    -8.097000000    -3.280000000
H     2.547000000    -9.174000000    -3.216000000
C     1.223000000    -7.564000000    -3.812000000
H     0.502000000    -8.193000000    -4.329000000
C     1.072000000    -6.206000000    -3.806000000
O     0.002000000    -5.688000000    -4.435000000
C    -0.847000000    -4.705000000    -4.001000000
C    -1.202000000    -3.782000000    -4.950000000
H    -0.861000000    -3.936000000    -5.970000000
C    -2.102000000    -2.754000000    -4.640000000
O    -2.338000000    -1.886000000    -5.679000000
C    -3.226000000    -0.801000000    -5.512000000
C    -2.745000000     0.503000000    -5.222000000
H    -1.661000000     0.573000000    -5.201000000
C    -4.638000000    -1.054000000    -5.586000000
H    -5.075000000    -2.022000000    -5.817000000
C    -5.528000000    -0.006000000    -5.464000000
H    -6.593000000    -0.169000000    -5.320000000
C    -5.058000000     1.332000000    -5.306000000
H    -5.708000000     2.203000000    -5.309000000
C    -3.650000000     1.578000000    -5.148000000
O    -3.223000000     2.852000000    -5.018000000
C    -3.113000000     3.462000000    -3.757000000
C    -2.537000000     4.706000000    -3.628000000
H    -2.259000000     5.331000000    -4.473000000
C    -2.348000000     5.235000000    -2.380000000
O    -1.966000000     6.597000000    -2.317000000
C    -1.007000000     7.022000000    -1.499000000
C     0.239000000     6.439000000    -1.718000000
H     0.455000000     5.868000000    -2.617000000
C    -1.290000000     7.973000000    -0.526000000
H    -2.317000000     8.271000000    -0.333000000
C    -0.284000000     8.170000000     0.425000000
H    -0.438000000     8.926000000     1.191000000
C     0.975000000     7.596000000     0.264000000
H     1.802000000     7.711000000     0.960000000
C     1.276000000     6.787000000    -0.879000000
O     2.524000000     6.236000000    -0.917000000
C     2.949000000     5.248000000    -0.020000000
C     4.288000000     4.929000000    -0.055000000
H     5.001000000     5.441000000    -0.697000000
C     4.780000000     3.907000000     0.684000000
O     6.089000000     3.501000000     0.524000000
C     6.323000000     2.206000000     0.907000000
C     6.859000000     1.861000000     2.135000000
H     7.011000000     2.647000000     2.870000000
C     7.246000000     0.494000000     2.336000000
H     7.671000000     0.244000000     3.304000000
C     6.882000000    -0.493000000     1.411000000
H     6.989000000    -1.539000000     1.686000000
C     6.340000000    -0.083000000     0.187000000
C     6.091000000     1.292000000    -0.073000000
H     5.764000000     1.537000000    -1.080000000
C     1.150000000    -0.981000000    -2.295000000
H     1.622000000    -1.814000000    -2.808000000
C     0.528000000    -1.295000000    -1.086000000
H     0.537000000    -2.284000000    -0.635000000
C    -0.049000000    -0.256000000    -0.429000000
H    -0.351000000    -0.288000000     0.585000000
C    -0.041000000     1.059000000    -0.977000000
H    -0.407000000     1.873000000    -0.357000000
C     0.605000000     1.333000000    -2.254000000
H     0.597000000     2.296000000    -2.758000000
C     1.181000000     0.285000000    -2.916000000
C     1.861000000     0.596000000    -4.224000000
O     1.945000000     1.646000000    -4.761000000
O     2.559000000    -0.285000000    -4.577000000
O     4.876000000    -0.488000000    -3.889000000
H     4.948000000    -1.001000000    -3.084000000
H     3.935000000    -0.414000000    -4.043000000
O     1.300000000     4.122000000    -5.388000000
H     1.538000000     3.234000000    -5.122000000
H     1.560000000     4.174000000    -6.308000000
O    -0.268000000     2.792000000    -8.672000000
H    -0.129000000     2.340000000    -9.504000000
H     0.598000000     3.118000000    -8.429000000
O     2.518000000    -5.398000000    -6.507000000
H     3.444000000    -5.330000000    -6.275000000
H     2.153000000    -4.539000000    -6.293000000
O     3.721000000    -2.003000000    -8.508000000
H     4.385000000    -1.860000000    -7.833000000
H     3.107000000    -2.622000000    -8.112000000
O     4.819000000    -3.887000000    -5.457000000
H     5.555000000    -4.332000000    -5.036000000
H     5.210000000    -3.121000000    -5.876000000
O     5.387000000     1.630000000    -5.687000000
H     5.436000000     2.559000000    -5.464000000
H     5.184000000     1.195000000    -4.859000000
O     2.918000000     0.835000000    -7.322000000
H     2.349000000     0.891000000    -6.554000000
H     3.804000000     0.791000000    -6.961000000
O     0.767000000     6.689000000    -4.756000000
H     0.285000000     6.877000000    -5.561000000
H     1.045000000     5.778000000    -4.851000000
O     5.649000000    -1.581000000    -6.690000000
H     5.366000000    -1.043000000    -5.950000000
H     6.425000000    -1.135000000    -7.027000000
O     1.105000000    -2.113000000    -7.605000000
H     1.010000000    -1.160000000    -7.601000000
H     1.478000000    -2.320000000    -6.748000000
O     2.393000000    -0.336000000   -10.415000000
H     2.429000000    -1.289000000   -10.502000000
H     2.651000000    -0.169000000    -9.508000000
O     2.304000000    -2.873000000    -5.498000000
H     2.429000000    -1.986000000    -5.160000000
H     3.159000000    -3.291000000    -5.397000000
O     2.597000000     3.176000000    -8.452000000
H     3.252000000     3.109000000    -9.146000000
H     2.738000000     2.398000000    -7.913000000
O     3.838000000     5.854000000    -7.385000000
H     3.519000000     5.087000000    -7.860000000
H     3.090000000     6.452000000    -7.366000000
O     3.669000000     3.034000000    -2.315000000
H     3.084000000     3.785000000    -2.417000000
H     3.082000000     2.287000000    -2.196000000
O     7.207000000     2.401000000    -7.827000000
H     7.335000000     3.288000000    -7.491000000
H     6.642000000     1.979000000    -7.179000000
O     6.592000000     3.885000000    -2.638000000
H     5.762000000     3.509000000    -2.345000000
H     6.358000000     4.420000000    -3.396000000
O     5.550000000     4.901000000    -5.131000000
H     5.999000000     5.569000000    -5.650000000
H     4.670000000     5.253000000    -4.997000000
