215
-1407.34879
C    -3.492000000    -3.501000000    -1.932000000
H    -4.039000000    -2.703000000    -1.436000000
C    -2.436000000    -4.223000000    -1.315000000
C    -1.686000000    -5.125000000    -2.038000000
H    -0.849000000    -5.653000000    -1.588000000
C    -2.067000000    -4.053000000     0.125000000
O    -3.248000000    -3.856000000     0.886000000
H    -1.477000000    -3.126000000     0.091000000
O    -1.296000000    -5.169000000     0.670000000
C    -0.124000000    -4.793000000     1.307000000
C     1.044000000    -4.662000000     0.608000000
H     1.124000000    -5.054000000    -0.403000000
C     2.101000000    -4.030000000     1.235000000
O     3.244000000    -3.688000000     0.472000000
C     2.047000000    -3.718000000     2.620000000
C     3.194000000    -3.043000000     3.285000000
H     3.077000000    -3.084000000     4.370000000
C     3.202000000    -1.563000000     2.934000000
C     2.676000000    -0.752000000     3.906000000
H     2.195000000    -1.265000000     4.735000000
H     4.166000000    -3.506000000     3.106000000
C     0.837000000    -3.933000000     3.322000000
H     0.693000000    -3.688000000     4.371000000
C    -0.250000000    -4.443000000     2.656000000
C    -1.660000000    -4.412000000     3.310000000
H    -1.501000000    -4.442000000     4.390000000
H    -2.326000000    -5.200000000     2.951000000
C    -2.365000000    -3.094000000     3.043000000
C    -2.240000000    -2.076000000     4.008000000
H    -1.636000000    -2.308000000     4.881000000
C    -3.146000000    -2.922000000     1.888000000
C    -3.745000000    -1.733000000     1.676000000
H    -4.318000000    -1.475000000     0.789000000
C    -3.544000000    -0.626000000     2.572000000
O    -4.026000000     0.611000000     2.271000000
C    -3.145000000     1.686000000     2.093000000
C    -3.424000000     2.444000000     0.845000000
C    -3.517000000     3.860000000     0.723000000
H    -3.407000000     4.508000000     1.588000000
C    -3.350000000     1.802000000    -0.368000000
H    -3.190000000     0.727000000    -0.343000000
O    -3.072000000     2.491000000     3.331000000
H    -2.189000000     1.217000000     1.815000000
C    -2.791000000    -0.811000000     3.738000000
C    -2.655000000     0.171000000     4.843000000
H    -2.543000000    -0.304000000     5.820000000
H    -3.604000000     0.692000000     4.982000000
C    -1.537000000     1.234000000     4.686000000
C    -0.213000000     1.040000000     5.082000000
H     0.090000000     0.208000000     5.714000000
C    -1.843000000     2.405000000     3.950000000
C    -0.887000000     3.347000000     3.568000000
H    -1.133000000     4.240000000     2.998000000
C     0.393000000     3.080000000     3.952000000
O     1.307000000     3.844000000     3.334000000
C     1.893000000     3.244000000     2.159000000
C     2.011000000     4.282000000     0.995000000
C     1.381000000     5.534000000     0.971000000
H     0.670000000     5.656000000     1.785000000
C     2.797000000     3.961000000    -0.154000000
H     3.351000000     3.040000000    -0.319000000
O     3.180000000     2.616000000     2.526000000
H     1.316000000     2.395000000     1.763000000
C     0.763000000     1.941000000     4.638000000
C     2.169000000     1.446000000     4.949000000
H     2.209000000     0.832000000     5.851000000
H     2.757000000     2.344000000     5.150000000
C     2.685000000     0.642000000     3.807000000
C     3.268000000     1.221000000     2.670000000
C     3.919000000     0.462000000     1.754000000
H     4.351000000     0.880000000     0.847000000
C     3.914000000    -0.954000000     1.857000000
O     4.354000000    -1.631000000     0.781000000
C     3.403000000    -2.297000000    -0.011000000
H     2.529000000    -1.684000000     0.255000000
C     3.601000000    -2.223000000    -1.549000000
C     3.154000000    -3.247000000    -2.405000000
H     2.719000000    -4.111000000    -1.910000000
C     3.942000000    -0.975000000    -2.041000000
H     4.185000000    -0.156000000    -1.367000000
C     4.031000000    -0.833000000    -3.433000000
O     4.476000000     0.403000000    -3.984000000
C     3.692000000    -1.862000000    -4.299000000
H     4.028000000    -1.843000000    -5.333000000
C     3.217000000    -3.064000000    -3.757000000
O     2.997000000    -3.995000000    -4.753000000
C     2.224000000    -5.108000000    -4.483000000
C     0.901000000    -5.052000000    -4.248000000
H     0.456000000    -4.065000000    -4.344000000
C     2.774000000    -6.311000000    -4.592000000
H     3.812000000    -6.365000000    -4.911000000
C     2.098000000    -7.519000000    -4.388000000
H     2.663000000    -8.441000000    -4.493000000
C     0.705000000    -7.502000000    -4.199000000
H     0.121000000    -8.415000000    -4.128000000
C     0.103000000    -6.242000000    -4.151000000
O    -1.258000000    -6.177000000    -4.166000000
C    -1.997000000    -5.292000000    -3.400000000
C    -2.960000000    -4.529000000    -4.001000000
H    -3.132000000    -4.646000000    -5.068000000
C    -3.670000000    -3.658000000    -3.334000000
O    -4.552000000    -2.916000000    -3.996000000
C    -5.028000000    -1.668000000    -3.596000000
C    -4.080000000    -0.646000000    -3.370000000
H    -3.027000000    -0.917000000    -3.359000000
C    -6.387000000    -1.387000000    -3.653000000
H    -6.978000000    -2.255000000    -3.932000000
C    -6.760000000    -0.134000000    -3.142000000
H    -7.790000000     0.172000000    -2.978000000
C    -5.752000000     0.785000000    -2.896000000
H    -6.070000000     1.648000000    -2.317000000
C    -4.420000000     0.654000000    -3.066000000
O    -3.461000000     1.678000000    -2.814000000
C    -3.451000000     2.417000000    -1.575000000
C    -3.622000000     3.769000000    -1.668000000
H    -3.626000000     4.198000000    -2.667000000
C    -3.667000000     4.501000000    -0.495000000
O    -3.835000000     5.880000000    -0.539000000
C    -2.901000000     6.771000000    -0.034000000
C    -1.547000000     6.761000000    -0.392000000
H    -1.176000000     5.956000000    -1.021000000
C    -3.297000000     7.661000000     1.006000000
H    -4.309000000     7.579000000     1.394000000
C    -2.399000000     8.511000000     1.604000000
H    -2.760000000     9.117000000     2.431000000
C    -1.105000000     8.628000000     1.059000000
H    -0.308000000     9.243000000     1.469000000
C    -0.661000000     7.594000000     0.225000000
O     0.661000000     7.588000000    -0.146000000
C     1.452000000     6.440000000    -0.088000000
C     2.327000000     6.152000000    -1.096000000
H     2.466000000     6.835000000    -1.930000000
C     2.978000000     4.956000000    -1.160000000
O     3.806000000     4.791000000    -2.195000000
C     4.586000000     3.658000000    -2.338000000
C     5.830000000     3.591000000    -1.741000000
H     6.238000000     4.430000000    -1.183000000
C     6.681000000     2.501000000    -2.003000000
H     7.664000000     2.338000000    -1.568000000
C     6.214000000     1.462000000    -2.815000000
H     6.756000000     0.559000000    -3.084000000
C     4.893000000     1.549000000    -3.340000000
C     4.079000000     2.611000000    -3.138000000
H     3.072000000     2.699000000    -3.537000000
C     0.156000000    -1.189000000    -3.305000000
H     0.110000000    -1.960000000    -4.071000000
C    -0.085000000    -1.450000000    -1.955000000
H    -0.152000000    -2.482000000    -1.618000000
C    -0.015000000    -0.381000000    -1.019000000
H    -0.106000000    -0.593000000     0.017000000
C     0.170000000     0.936000000    -1.518000000
H     0.179000000     1.759000000    -0.808000000
C     0.407000000     1.178000000    -2.876000000
H     0.585000000     2.205000000    -3.182000000
C     0.340000000     0.095000000    -3.790000000
C     0.594000000     0.278000000    -5.287000000
O     1.128000000     1.290000000    -5.785000000
O    -0.031000000    -0.379000000    -6.063000000
O     3.727000000     1.390000000    -6.466000000
H     2.791000000     1.289000000    -6.639000000
H     3.828000000     1.145000000    -5.546000000
O     0.704000000     1.162000000    -8.537000000
H     0.900000000     1.153000000    -7.600000000
H    -0.252000000     1.157000000    -8.582000000
O    -0.284000000     5.372000000    -3.932000000
H     0.594000000     5.717000000    -3.770000000
H    -0.135000000     4.515000000    -4.331000000
O     3.188000000     5.646000000    -5.833000000
H     2.631000000     4.946000000    -5.492000000
H     2.697000000     6.449000000    -5.660000000
O    -0.638000000    -1.415000000   -10.831000000
H     0.022000000    -1.559000000   -11.510000000
H    -0.151000000    -1.467000000   -10.009000000
O     2.368000000     0.110000000   -10.398000000
H     1.994000000    -0.649000000   -10.845000000
H     1.657000000     0.438000000    -9.848000000
O    -1.857000000     0.789000000    -7.652000000
H    -1.162000000     0.483000000    -7.070000000
H    -2.615000000     0.906000000    -7.079000000
O    -4.084000000     0.833000000    -6.305000000
H    -4.549000000     1.665000000    -6.393000000
H    -4.219000000     0.579000000    -5.393000000
O     6.429000000     0.484000000    -6.358000000
H     5.599000000     0.954000000    -6.282000000
H     7.095000000     1.137000000    -6.143000000
O     5.045000000     1.347000000    -8.928000000
H     4.840000000     1.371000000    -7.994000000
H     4.723000000     0.495000000    -9.222000000
O    -2.763000000     4.964000000    -6.173000000
H    -2.536000000     5.687000000    -5.589000000
H    -1.988000000     4.846000000    -6.722000000
O    -0.743000000     4.613000000    -8.039000000
H    -1.452000000     4.245000000    -8.566000000
H    -0.566000000     5.465000000    -8.436000000
O    -1.137000000    -4.222000000    -9.493000000
H    -0.723000000    -3.612000000    -8.882000000
H    -0.964000000    -3.850000000   -10.357000000
O     0.206000000    -2.157000000    -8.243000000
H     1.020000000    -2.590000000    -7.987000000
H    -0.012000000    -1.596000000    -7.499000000
O    -4.645000000     0.268000000    -8.926000000
H    -4.151000000     0.638000000    -8.195000000
H    -5.157000000     1.002000000    -9.265000000
O     1.097000000     4.013000000    -5.881000000
H     0.973000000     4.122000000    -6.824000000
H     0.912000000     3.088000000    -5.720000000
O     2.926000000     3.301000000    -9.784000000
H     2.384000000     3.409000000   -10.566000000
H     2.805000000     2.385000000    -9.533000000
O     2.332000000    -3.785000000    -7.790000000
H     3.096000000    -3.211000000    -7.845000000
H     2.693000000    -4.645000000    -7.574000000
O     4.884000000    -2.581000000    -7.632000000
H     5.703000000    -2.462000000    -7.150000000
H     5.031000000    -2.136000000    -8.467000000
