215
-1455.27847
C    -3.008000000    -3.669000000    -2.513000000
H    -3.692000000    -3.078000000    -1.910000000
C    -1.998000000    -4.359000000    -1.843000000
C    -1.054000000    -5.031000000    -2.687000000
H    -0.195000000    -5.522000000    -2.239000000
C    -1.782000000    -4.176000000    -0.308000000
O    -3.016000000    -4.049000000     0.492000000
H    -1.342000000    -3.184000000    -0.127000000
O    -0.826000000    -5.147000000     0.218000000
C     0.279000000    -4.747000000     0.973000000
C     1.522000000    -4.428000000     0.368000000
H     1.739000000    -4.600000000    -0.683000000
C     2.558000000    -3.933000000     1.114000000
O     3.538000000    -3.366000000     0.345000000
C     2.386000000    -3.491000000     2.444000000
C     3.465000000    -2.775000000     3.194000000
H     3.392000000    -3.151000000     4.216000000
C     3.279000000    -1.233000000     3.125000000
C     2.793000000    -0.550000000     4.192000000
H     2.493000000    -1.050000000     5.110000000
H     4.444000000    -3.053000000     2.798000000
C     1.204000000    -3.816000000     3.031000000
H     1.087000000    -3.495000000     4.062000000
C     0.071000000    -4.351000000     2.314000000
C    -1.341000000    -4.650000000     2.877000000
H    -1.144000000    -4.833000000     3.935000000
H    -1.864000000    -5.554000000     2.558000000
C    -2.188000000    -3.422000000     2.723000000
C    -2.258000000    -2.534000000     3.776000000
H    -1.573000000    -2.752000000     4.592000000
C    -3.013000000    -3.208000000     1.589000000
C    -3.752000000    -2.042000000     1.517000000
H    -4.436000000    -1.843000000     0.696000000
C    -3.797000000    -1.137000000     2.568000000
O    -4.390000000     0.052000000     2.332000000
C    -3.557000000     1.243000000     2.077000000
C    -3.920000000     1.987000000     0.751000000
C    -4.091000000     3.353000000     0.675000000
H    -4.199000000     3.923000000     1.594000000
C    -3.892000000     1.261000000    -0.418000000
H    -3.722000000     0.192000000    -0.323000000
O    -3.554000000     2.010000000     3.184000000
H    -2.540000000     0.889000000     1.849000000
C    -3.016000000    -1.322000000     3.701000000
C    -3.040000000    -0.228000000     4.806000000
H    -3.040000000    -0.693000000     5.794000000
H    -4.057000000     0.165000000     4.751000000
C    -2.066000000     0.895000000     4.661000000
C    -0.738000000     0.783000000     5.095000000
H    -0.406000000    -0.128000000     5.587000000
C    -2.443000000     2.004000000     3.907000000
C    -1.492000000     3.069000000     3.671000000
H    -1.714000000     3.974000000     3.111000000
C    -0.170000000     2.895000000     4.085000000
O     0.846000000     3.790000000     3.619000000
C     1.566000000     3.397000000     2.483000000
C     1.710000000     4.497000000     1.461000000
C     0.776000000     5.539000000     1.257000000
H    -0.060000000     5.654000000     1.942000000
C     2.765000000     4.494000000     0.568000000
H     3.540000000     3.744000000     0.707000000
O     2.866000000     2.870000000     2.802000000
H     0.960000000     2.671000000     1.921000000
C     0.264000000     1.735000000     4.732000000
C     1.718000000     1.532000000     5.125000000
H     1.784000000     1.002000000     6.077000000
H     2.272000000     2.439000000     5.378000000
C     2.514000000     0.767000000     4.060000000
C     2.969000000     1.479000000     2.923000000
C     3.562000000     0.815000000     1.851000000
H     3.923000000     1.332000000     0.966000000
C     3.639000000    -0.581000000     1.911000000
O     4.275000000    -1.283000000     0.841000000
C     3.465000000    -1.973000000    -0.063000000
H     2.435000000    -1.587000000    -0.056000000
C     3.894000000    -1.736000000    -1.507000000
C     3.609000000    -2.721000000    -2.416000000
H     3.085000000    -3.646000000    -2.190000000
C     4.469000000    -0.502000000    -1.825000000
H     4.530000000     0.223000000    -1.018000000
C     4.804000000    -0.199000000    -3.154000000
O     5.459000000     0.970000000    -3.489000000
C     4.562000000    -1.165000000    -4.070000000
H     4.861000000    -0.948000000    -5.092000000
C     3.975000000    -2.405000000    -3.736000000
O     3.727000000    -3.430000000    -4.707000000
C     3.083000000    -4.628000000    -4.615000000
C     1.714000000    -4.635000000    -4.669000000
H     1.227000000    -3.704000000    -4.946000000
C     3.804000000    -5.863000000    -4.479000000
H     4.884000000    -5.751000000    -4.414000000
C     3.062000000    -7.078000000    -4.542000000
H     3.603000000    -8.010000000    -4.401000000
C     1.649000000    -7.121000000    -4.514000000
H     1.115000000    -8.064000000    -4.584000000
C     0.982000000    -5.869000000    -4.608000000
O    -0.355000000    -5.832000000    -4.825000000
C    -1.129000000    -4.946000000    -4.061000000
C    -2.241000000    -4.380000000    -4.675000000
H    -2.411000000    -4.507000000    -5.741000000
C    -3.147000000    -3.683000000    -3.893000000
O    -4.202000000    -3.141000000    -4.546000000
C    -4.932000000    -2.105000000    -4.045000000
C    -4.213000000    -0.993000000    -3.624000000
H    -3.167000000    -0.965000000    -3.920000000
C    -6.215000000    -2.194000000    -3.572000000
H    -6.747000000    -3.133000000    -3.707000000
C    -6.861000000    -1.126000000    -2.918000000
H    -7.905000000    -1.132000000    -2.614000000
C    -6.109000000    -0.003000000    -2.601000000
H    -6.447000000     0.869000000    -2.046000000
C    -4.761000000     0.102000000    -2.992000000
O    -3.981000000     1.215000000    -2.799000000
C    -4.029000000     1.883000000    -1.636000000
C    -3.895000000     3.261000000    -1.733000000
H    -3.774000000     3.693000000    -2.723000000
C    -4.023000000     4.038000000    -0.607000000
O    -4.364000000     5.324000000    -0.767000000
C    -3.578000000     6.313000000    -0.197000000
C    -2.207000000     6.316000000    -0.246000000
H    -1.710000000     5.483000000    -0.735000000
C    -4.279000000     7.419000000     0.216000000
H    -5.365000000     7.452000000     0.181000000
C    -3.553000000     8.437000000     0.826000000
H    -4.050000000     9.302000000     1.258000000
C    -2.192000000     8.373000000     0.892000000
H    -1.642000000     9.203000000     1.328000000
C    -1.501000000     7.390000000     0.228000000
O    -0.110000000     7.503000000    -0.028000000
C     0.826000000     6.427000000     0.181000000
C     1.879000000     6.286000000    -0.732000000
H     1.880000000     6.999000000    -1.553000000
C     2.847000000     5.306000000    -0.564000000
O     3.757000000     5.099000000    -1.557000000
C     4.554000000     3.970000000    -1.491000000
C     5.708000000     4.056000000    -0.689000000
H     5.711000000     4.963000000    -0.090000000
C     6.702000000     3.031000000    -0.695000000
H     7.607000000     3.155000000    -0.105000000
C     6.667000000     2.019000000    -1.685000000
H     7.553000000     1.395000000    -1.768000000
C     5.551000000     1.991000000    -2.529000000
C     4.474000000     2.862000000    -2.356000000
H     3.624000000     2.799000000    -3.031000000
C     0.050000000    -1.159000000    -2.644000000
H     0.094000000    -1.926000000    -3.412000000
C     0.141000000    -1.441000000    -1.236000000
H     0.278000000    -2.441000000    -0.833000000
C     0.236000000    -0.366000000    -0.341000000
H     0.305000000    -0.539000000     0.730000000
C     0.158000000     0.942000000    -0.807000000
H     0.165000000     1.738000000    -0.066000000
C     0.174000000     1.228000000    -2.181000000
H     0.334000000     2.260000000    -2.482000000
C     0.035000000     0.190000000    -3.098000000
C     0.017000000     0.474000000    -4.547000000
O     0.425000000     1.566000000    -4.964000000
O    -0.667000000    -0.282000000    -5.319000000
O     3.172000000     1.499000000    -5.513000000
H     2.253000000     1.326000000    -5.311000000
H     3.505000000     1.954000000    -4.739000000
O    -0.219000000     2.363000000    -7.560000000
H    -0.111000000     2.059000000    -6.659000000
H    -0.571000000     1.605000000    -8.028000000
O    -0.003000000     5.688000000    -3.097000000
H    -0.627000000     6.017000000    -3.744000000
H     0.571000000     5.104000000    -3.593000000
O    -4.372000000     3.459000000    -8.126000000
H    -4.402000000     4.090000000    -7.407000000
H    -3.439000000     3.353000000    -8.313000000
O    -0.732000000    -1.547000000   -10.314000000
H    -0.359000000    -2.039000000   -11.045000000
H    -1.087000000    -2.218000000    -9.730000000
O     0.912000000     0.780000000   -10.124000000
H     0.529000000    -0.087000000   -10.254000000
H     0.184000000     1.386000000   -10.257000000
O    -5.515000000     3.514000000    -5.027000000
H    -5.688000000     4.414000000    -4.749000000
H    -4.562000000     3.465000000    -5.100000000
O    -2.861000000     0.902000000    -6.354000000
H    -2.214000000     0.343000000    -5.923000000
H    -2.658000000     0.828000000    -7.287000000
O    -5.437000000     0.741000000    -6.449000000
H    -4.491000000     0.816000000    -6.328000000
H    -5.796000000     1.516000000    -6.016000000
O     3.408000000     0.771000000    -9.012000000
H     3.241000000     1.639000000    -8.643000000
H     2.538000000     0.409000000    -9.176000000
O    -2.960000000     3.171000000    -5.342000000
H    -2.259000000     3.081000000    -4.697000000
H    -3.098000000     2.283000000    -5.671000000
O    -5.587000000    -2.324000000    -7.004000000
H    -5.501000000    -1.600000000    -6.384000000
H    -6.129000000    -1.971000000    -7.710000000
O    -1.597000000     4.395000000    -8.436000000
H    -1.050000000     3.609000000    -8.457000000
H    -1.199000000     4.945000000    -7.761000000
O    -0.188000000    -2.586000000    -6.710000000
H    -0.616000000    -3.124000000    -6.043000000
H    -0.402000000    -1.686000000    -6.465000000
O    -4.502000000    -0.120000000    -8.982000000
H    -4.885000000     0.347000000    -8.239000000
H    -5.252000000    -0.364000000    -9.524000000
O     1.468000000     4.095000000    -4.811000000
H     2.086000000     3.916000000    -5.520000000
H     0.782000000     3.437000000    -4.918000000
O     2.316000000     3.434000000    -7.560000000
H     1.468000000     3.262000000    -7.970000000
H     2.445000000     2.701000000    -6.958000000
O     2.179000000    -2.756000000    -8.396000000
H     2.765000000    -2.823000000    -7.642000000
H     1.345000000    -2.467000000    -8.026000000
O    -1.795000000     0.931000000    -9.514000000
H    -2.721000000     1.068000000    -9.711000000
H    -1.583000000     0.095000000    -9.929000000
