215
-1460.82538
C    -3.612000000    -3.290000000    -2.097000000
H    -4.417000000    -2.937000000    -1.458000000
C    -2.473000000    -3.729000000    -1.458000000
C    -1.314000000    -4.143000000    -2.164000000
H    -0.386000000    -4.394000000    -1.657000000
C    -2.210000000    -3.595000000     0.020000000
O    -3.433000000    -3.373000000     0.724000000
H    -1.578000000    -2.697000000     0.085000000
O    -1.419000000    -4.658000000     0.603000000
C    -0.444000000    -4.244000000     1.519000000
C     0.899000000    -4.262000000     1.161000000
H     1.153000000    -4.797000000     0.250000000
C     1.888000000    -3.862000000     1.986000000
O     3.229000000    -3.835000000     1.608000000
C     1.458000000    -3.222000000     3.202000000
C     2.514000000    -2.567000000     4.126000000
H     2.258000000    -2.561000000     5.188000000
C     2.893000000    -1.170000000     3.768000000
C     2.246000000    -0.157000000     4.448000000
H     1.481000000    -0.415000000     5.176000000
H     3.466000000    -3.096000000     4.042000000
C     0.139000000    -3.151000000     3.628000000
H    -0.068000000    -2.735000000     4.611000000
C    -0.842000000    -3.694000000     2.735000000
C    -2.304000000    -3.660000000     3.224000000
H    -2.173000000    -3.634000000     4.308000000
H    -2.833000000    -4.550000000     2.877000000
C    -3.031000000    -2.369000000     2.831000000
C    -3.012000000    -1.217000000     3.649000000
H    -2.562000000    -1.275000000     4.636000000
C    -3.628000000    -2.348000000     1.547000000
C    -4.229000000    -1.199000000     1.089000000
H    -4.730000000    -1.186000000     0.124000000
C    -4.143000000    -0.043000000     1.909000000
O    -4.548000000     1.110000000     1.414000000
C    -3.552000000     2.065000000     0.913000000
C    -3.982000000     2.700000000    -0.321000000
C    -3.381000000     3.886000000    -0.729000000
H    -2.681000000     4.393000000    -0.070000000
C    -4.705000000     1.964000000    -1.292000000
H    -5.167000000     1.001000000    -1.089000000
O    -3.319000000     3.064000000     1.943000000
H    -2.639000000     1.500000000     0.676000000
C    -3.634000000    -0.048000000     3.193000000
C    -3.550000000     1.160000000     4.072000000
H    -3.644000000     0.817000000     5.104000000
H    -4.428000000     1.808000000     4.021000000
C    -2.260000000     1.984000000     3.802000000
C    -1.030000000     1.654000000     4.420000000
H    -0.890000000     0.873000000     5.164000000
C    -2.254000000     2.882000000     2.723000000
C    -1.113000000     3.646000000     2.487000000
H    -1.055000000     4.424000000     1.730000000
C     0.096000000     3.357000000     3.198000000
O     1.247000000     4.024000000     2.776000000
C     2.080000000     3.175000000     1.934000000
C     2.421000000     3.940000000     0.691000000
C     1.707000000     5.044000000     0.278000000
H     0.902000000     5.424000000     0.902000000
C     3.472000000     3.522000000    -0.142000000
H     4.033000000     2.638000000     0.152000000
O     3.279000000     2.694000000     2.581000000
H     1.538000000     2.260000000     1.651000000
C     0.142000000     2.351000000     4.118000000
C     1.495000000     2.129000000     4.845000000
H     1.364000000     1.826000000     5.886000000
H     1.995000000     3.094000000     4.956000000
C     2.390000000     1.106000000     4.124000000
C     3.297000000     1.429000000     3.115000000
C     4.061000000     0.514000000     2.434000000
H     4.737000000     0.725000000     1.609000000
C     3.878000000    -0.821000000     2.834000000
O     4.485000000    -1.798000000     2.031000000
C     3.641000000    -2.563000000     1.122000000
H     2.809000000    -1.869000000     0.930000000
C     4.323000000    -2.802000000    -0.265000000
C     4.119000000    -3.968000000    -1.036000000
H     3.489000000    -4.780000000    -0.682000000
C     4.962000000    -1.708000000    -0.917000000
H     5.039000000    -0.766000000    -0.380000000
C     5.455000000    -1.829000000    -2.231000000
O     5.963000000    -0.719000000    -2.787000000
C     5.246000000    -3.003000000    -2.960000000
H     5.628000000    -2.976000000    -3.977000000
C     4.565000000    -4.086000000    -2.387000000
O     4.252000000    -5.141000000    -3.190000000
C     3.027000000    -5.707000000    -3.111000000
C     1.966000000    -5.010000000    -3.676000000
H     2.119000000    -3.998000000    -4.041000000
C     2.821000000    -6.985000000    -2.577000000
H     3.630000000    -7.520000000    -2.086000000
C     1.532000000    -7.578000000    -2.731000000
H     1.321000000    -8.601000000    -2.430000000
C     0.478000000    -6.784000000    -3.289000000
H    -0.535000000    -7.177000000    -3.314000000
C     0.685000000    -5.498000000    -3.739000000
O    -0.310000000    -4.743000000    -4.285000000
C    -1.368000000    -4.224000000    -3.553000000
C    -2.555000000    -3.836000000    -4.163000000
H    -2.554000000    -3.873000000    -5.250000000
C    -3.636000000    -3.267000000    -3.495000000
O    -4.715000000    -2.825000000    -4.213000000
C    -5.542000000    -1.845000000    -3.790000000
C    -5.115000000    -0.516000000    -3.831000000
H    -4.067000000    -0.394000000    -4.092000000
C    -6.813000000    -2.189000000    -3.304000000
H    -7.081000000    -3.241000000    -3.268000000
C    -7.562000000    -1.198000000    -2.777000000
H    -8.480000000    -1.435000000    -2.245000000
C    -7.217000000     0.146000000    -2.881000000
H    -7.843000000     0.923000000    -2.449000000
C    -6.005000000     0.470000000    -3.477000000
O    -5.707000000     1.847000000    -3.592000000
C    -5.006000000     2.520000000    -2.552000000
C    -4.432000000     3.756000000    -2.930000000
H    -4.598000000     4.153000000    -3.928000000
C    -3.602000000     4.416000000    -1.996000000
O    -3.149000000     5.654000000    -2.363000000
C    -2.235000000     6.324000000    -1.525000000
C    -0.890000000     6.233000000    -1.806000000
H    -0.556000000     5.688000000    -2.685000000
C    -2.703000000     6.985000000    -0.401000000
H    -3.755000000     6.883000000    -0.147000000
C    -1.795000000     7.643000000     0.416000000
H    -2.023000000     7.944000000     1.435000000
C    -0.432000000     7.697000000     0.092000000
H     0.346000000     7.971000000     0.800000000
C    -0.004000000     6.975000000    -1.043000000
O     1.324000000     6.881000000    -1.178000000
C     2.012000000     5.758000000    -0.892000000
C     3.067000000     5.353000000    -1.704000000
H     3.290000000     5.877000000    -2.630000000
C     3.796000000     4.249000000    -1.294000000
O     4.717000000     3.855000000    -2.200000000
C     5.605000000     2.852000000    -1.930000000
C     6.760000000     3.192000000    -1.181000000
H     6.945000000     4.152000000    -0.705000000
C     7.686000000     2.146000000    -0.981000000
H     8.680000000     2.396000000    -0.619000000
C     7.424000000     0.876000000    -1.474000000
H     8.032000000    -0.017000000    -1.355000000
C     6.231000000     0.518000000    -2.098000000
C     5.303000000     1.526000000    -2.282000000
H     4.365000000     1.343000000    -2.799000000
C     1.640000000     0.282000000    -2.364000000
H     2.341000000    -0.175000000    -3.057000000
C     1.116000000    -0.354000000    -1.281000000
H     1.506000000    -1.323000000    -0.979000000
C     0.314000000     0.333000000    -0.402000000
H     0.004000000    -0.146000000     0.574000000
C    -0.042000000     1.626000000    -0.647000000
H    -0.688000000     2.146000000     0.056000000
C     0.351000000     2.246000000    -1.877000000
H     0.087000000     3.281000000    -2.082000000
C     1.230000000     1.559000000    -2.689000000
C     1.692000000     2.044000000    -4.021000000
O     1.314000000     3.102000000    -4.454000000
O     2.480000000     1.391000000    -4.666000000
O     1.174000000     1.863000000    -7.199000000
H     1.515000000     2.696000000    -7.526000000
H     1.498000000     1.808000000    -6.300000000
O     6.197000000    -1.460000000    -6.337000000
H     6.702000000    -1.110000000    -5.603000000
H     6.220000000    -0.766000000    -6.996000000
O    -1.152000000     0.678000000    -8.652000000
H    -1.910000000     0.836000000    -8.089000000
H    -0.423000000     1.096000000    -8.194000000
O    -2.803000000     5.879000000    -5.953000000
H    -3.561000000     5.367000000    -6.234000000
H    -2.077000000     5.255000000    -5.955000000
O     4.135000000     1.977000000    -9.471000000
H     3.844000000     2.763000000    -9.010000000
H     4.112000000     2.220000000   -10.397000000
O     3.891000000     4.858000000    -8.183000000
H     4.038000000     4.466000000    -7.322000000
H     3.026000000     5.263000000    -8.117000000
O    -1.110000000     3.887000000    -5.406000000
H    -1.780000000     3.223000000    -5.572000000
H    -0.398000000     3.408000000    -4.982000000
O    -1.029000000     7.541000000    -4.894000000
H    -0.270000000     7.058000000    -4.570000000
H    -1.545000000     6.888000000    -5.367000000
O    -1.465000000    -0.700000000    -4.818000000
H    -0.627000000    -0.327000000    -5.092000000
H    -1.246000000    -1.582000000    -4.515000000
O     6.462000000     4.037000000    -5.012000000
H     6.402000000     4.906000000    -4.615000000
H     5.648000000     3.944000000    -5.507000000
O     1.457000000     6.867000000    -7.905000000
H     0.911000000     6.703000000    -7.136000000
H     1.246000000     6.151000000    -8.505000000
O    -3.469000000    -1.065000000    -6.955000000
H    -3.285000000    -1.684000000    -7.662000000
H    -2.697000000    -1.108000000    -6.392000000
O     1.363000000     5.802000000    -4.894000000
H     1.336000000     4.845000000    -4.909000000
H     2.267000000     6.020000000    -5.120000000
O    -2.700000000     1.699000000    -6.337000000
H    -3.606000000     1.737000000    -6.645000000
H    -2.720000000     1.070000000    -5.615000000
O     0.828000000    -0.993000000    -7.056000000
H     0.766000000    -0.040000000    -7.117000000
H     1.666000000    -1.152000000    -6.622000000
O     0.566000000     4.260000000    -9.000000000
H     0.634000000     4.134000000    -9.946000000
H    -0.374000000     4.223000000    -8.820000000
O     3.942000000     6.367000000    -5.208000000
H     4.809000000     6.491000000    -4.822000000
H     3.870000000     7.061000000    -5.863000000
O     3.748000000     3.498000000    -5.734000000
H     3.404000000     2.693000000    -5.346000000
H     3.520000000     4.183000000    -5.106000000
O     3.053000000    -1.197000000    -5.517000000
H     4.000000000    -1.293000000    -5.417000000
H     2.872000000    -0.302000000    -5.232000000
