215
-1453.20417
C    -3.679000000    -3.020000000    -1.998000000
H    -4.366000000    -2.558000000    -1.293000000
C    -2.594000000    -3.686000000    -1.518000000
C    -1.632000000    -4.192000000    -2.446000000
H    -0.727000000    -4.681000000    -2.094000000
C    -2.232000000    -3.547000000    -0.013000000
O    -3.307000000    -3.628000000     0.944000000
H    -1.699000000    -2.589000000     0.080000000
O    -1.277000000    -4.547000000     0.336000000
C    -0.215000000    -4.316000000     1.118000000
C     1.035000000    -4.407000000     0.554000000
H     1.005000000    -4.533000000    -0.525000000
C     2.119000000    -3.971000000     1.258000000
O     3.324000000    -3.761000000     0.589000000
C     2.008000000    -3.555000000     2.529000000
C     3.152000000    -2.993000000     3.317000000
H     3.062000000    -3.027000000     4.405000000
C     3.267000000    -1.476000000     3.083000000
C     2.662000000    -0.609000000     4.007000000
H     2.065000000    -1.065000000     4.793000000
H     4.122000000    -3.428000000     3.071000000
C     0.766000000    -3.672000000     3.197000000
H     0.734000000    -3.455000000     4.262000000
C    -0.360000000    -3.975000000     2.463000000
C    -1.678000000    -4.066000000     3.171000000
H    -1.601000000    -4.165000000     4.256000000
H    -2.108000000    -4.970000000     2.734000000
C    -2.545000000    -2.875000000     2.984000000
C    -2.510000000    -1.870000000     3.951000000
H    -1.800000000    -2.004000000     4.763000000
C    -3.363000000    -2.694000000     1.894000000
C    -4.032000000    -1.505000000     1.613000000
H    -4.764000000    -1.496000000     0.809000000
C    -3.911000000    -0.462000000     2.555000000
O    -4.483000000     0.772000000     2.262000000
C    -3.510000000     1.717000000     1.760000000
C    -3.795000000     2.316000000     0.385000000
C    -3.013000000     3.355000000    -0.106000000
H    -2.182000000     3.787000000     0.446000000
C    -4.829000000     1.752000000    -0.381000000
H    -5.429000000     0.932000000     0.005000000
O    -3.265000000     2.670000000     2.790000000
H    -2.537000000     1.212000000     1.673000000
C    -3.214000000    -0.678000000     3.732000000
C    -3.082000000     0.447000000     4.762000000
H    -2.993000000    -0.070000000     5.719000000
H    -4.018000000     1.003000000     4.846000000
C    -1.937000000     1.362000000     4.337000000
C    -0.591000000     1.148000000     4.831000000
H    -0.357000000     0.328000000     5.506000000
C    -2.058000000     2.442000000     3.442000000
C    -0.994000000     3.217000000     2.979000000
H    -1.065000000     4.075000000     2.316000000
C     0.249000000     2.882000000     3.405000000
O     1.277000000     3.657000000     2.884000000
C     2.086000000     3.178000000     1.780000000
C     2.444000000     4.220000000     0.729000000
C     1.734000000     5.379000000     0.464000000
H     0.825000000     5.616000000     1.013000000
C     3.485000000     3.891000000    -0.179000000
H     3.985000000     2.947000000     0.022000000
O     3.290000000     2.609000000     2.349000000
H     1.589000000     2.342000000     1.266000000
C     0.472000000     1.838000000     4.301000000
C     1.926000000     1.612000000     4.773000000
H     1.858000000     1.266000000     5.806000000
H     2.513000000     2.516000000     4.949000000
C     2.694000000     0.817000000     3.829000000
C     3.400000000     1.275000000     2.724000000
C     4.052000000     0.471000000     1.882000000
H     4.645000000     0.891000000     1.073000000
C     3.955000000    -0.929000000     2.056000000
O     4.563000000    -1.746000000     1.160000000
C     3.696000000    -2.433000000     0.157000000
H     2.791000000    -1.807000000     0.194000000
C     4.201000000    -2.301000000    -1.243000000
C     3.847000000    -3.275000000    -2.163000000
H     3.417000000    -4.175000000    -1.730000000
C     4.775000000    -1.098000000    -1.734000000
H     5.055000000    -0.289000000    -1.063000000
C     5.079000000    -0.999000000    -3.116000000
O     5.637000000     0.092000000    -3.662000000
C     4.730000000    -1.971000000    -4.070000000
H     4.917000000    -1.895000000    -5.138000000
C     4.029000000    -3.072000000    -3.539000000
O     3.530000000    -4.005000000    -4.446000000
C     2.444000000    -4.745000000    -4.086000000
C     1.215000000    -4.387000000    -4.519000000
H     1.157000000    -3.401000000    -4.973000000
C     2.681000000    -6.030000000    -3.588000000
H     3.672000000    -6.324000000    -3.252000000
C     1.584000000    -6.892000000    -3.472000000
H     1.703000000    -7.802000000    -2.888000000
C     0.341000000    -6.491000000    -3.942000000
H    -0.522000000    -7.147000000    -3.850000000
C     0.137000000    -5.234000000    -4.449000000
O    -1.153000000    -4.730000000    -4.718000000
C    -2.019000000    -4.360000000    -3.746000000
C    -3.193000000    -3.804000000    -4.239000000
H    -3.481000000    -3.895000000    -5.284000000
C    -4.052000000    -3.190000000    -3.338000000
O    -5.237000000    -2.685000000    -3.808000000
C    -6.040000000    -1.755000000    -3.150000000
C    -5.859000000    -0.364000000    -3.231000000
H    -5.181000000     0.092000000    -3.948000000
C    -7.036000000    -2.185000000    -2.263000000
H    -7.330000000    -3.231000000    -2.246000000
C    -7.798000000    -1.273000000    -1.503000000
H    -8.553000000    -1.643000000    -0.813000000
C    -7.446000000     0.092000000    -1.550000000
H    -7.878000000     0.739000000    -0.790000000
C    -6.519000000     0.512000000    -2.390000000
O    -6.060000000     1.781000000    -2.446000000
C    -5.112000000     2.320000000    -1.632000000
C    -4.507000000     3.476000000    -2.007000000
H    -4.878000000     3.931000000    -2.922000000
C    -3.440000000     3.953000000    -1.272000000
O    -2.908000000     5.088000000    -1.761000000
C    -2.195000000     6.014000000    -1.035000000
C    -0.868000000     6.207000000    -1.359000000
H    -0.292000000     5.492000000    -1.941000000
C    -2.810000000     6.791000000    -0.064000000
H    -3.833000000     6.500000000     0.163000000
C    -2.103000000     7.726000000     0.652000000
H    -2.633000000     8.321000000     1.391000000
C    -0.770000000     7.947000000     0.367000000
H    -0.160000000     8.653000000     0.923000000
C    -0.138000000     7.166000000    -0.618000000
O     1.226000000     7.337000000    -0.856000000
C     2.040000000     6.270000000    -0.541000000
C     3.164000000     6.001000000    -1.372000000
H     3.445000000     6.552000000    -2.265000000
C     3.903000000     4.810000000    -1.164000000
O     5.071000000     4.559000000    -1.874000000
C     5.812000000     3.396000000    -1.953000000
C     6.784000000     3.147000000    -1.000000000
H     7.079000000     3.791000000    -0.175000000
C     7.385000000     1.833000000    -0.921000000
H     8.061000000     1.656000000    -0.087000000
C     7.086000000     0.884000000    -1.889000000
H     7.541000000    -0.102000000    -1.936000000
C     6.098000000     1.150000000    -2.867000000
C     5.432000000     2.382000000    -2.876000000
H     4.616000000     2.587000000    -3.565000000
C     0.063000000    -0.724000000    -2.580000000
H     0.293000000    -1.500000000    -3.306000000
C     0.316000000    -1.017000000    -1.218000000
H     0.533000000    -2.052000000    -0.967000000
C     0.049000000    -0.118000000    -0.244000000
H     0.204000000    -0.266000000     0.789000000
C    -0.353000000     1.171000000    -0.669000000
H    -0.465000000     1.949000000     0.083000000
C    -0.644000000     1.465000000    -1.995000000
H    -1.002000000     2.469000000    -2.211000000
C    -0.466000000     0.530000000    -2.952000000
C    -0.572000000     0.881000000    -4.387000000
O    -0.778000000     2.006000000    -4.722000000
O    -0.336000000     0.029000000    -5.235000000
O     3.104000000     3.225000000    -6.329000000
H     2.995000000     4.074000000    -5.900000000
H     2.217000000     2.973000000    -6.589000000
O     2.140000000    -0.798000000    -5.286000000
H     1.243000000    -0.467000000    -5.335000000
H     2.292000000    -0.938000000    -4.352000000
O     2.352000000     2.833000000    -9.709000000
H     1.739000000     2.814000000    -8.974000000
H     2.914000000     3.588000000    -9.533000000
O    -1.846000000     4.533000000    -7.748000000
H    -1.726000000     5.468000000    -7.919000000
H    -1.417000000     4.098000000    -8.485000000
O     2.555000000    -0.278000000    -9.453000000
H     2.792000000     0.283000000    -8.714000000
H     2.843000000    -1.153000000    -9.191000000
O    -3.025000000     5.761000000    -4.598000000
H    -2.675000000     5.531000000    -3.737000000
H    -2.326000000     6.265000000    -5.014000000
O    -3.037000000    -0.549000000    -5.928000000
H    -3.099000000     0.263000000    -6.431000000
H    -2.357000000    -0.376000000    -5.277000000
O    -2.795000000     2.329000000    -6.427000000
H    -2.058000000     2.163000000    -5.838000000
H    -2.487000000     3.026000000    -7.006000000
O     1.842000000     6.031000000    -4.473000000
H     1.045000000     5.517000000    -4.601000000
H     1.579000000     6.738000000    -3.884000000
O    -0.604000000    -0.651000000    -9.657000000
H    -0.548000000     0.203000000   -10.085000000
H     0.301000000    -0.865000000    -9.429000000
O    -2.182000000    -4.588000000    -7.562000000
H    -1.582000000    -3.946000000    -7.180000000
H    -2.826000000    -4.061000000    -8.034000000
O    -4.765000000     4.149000000    -5.846000000
H    -4.072000000     3.559000000    -6.142000000
H    -4.301000000     4.928000000    -5.539000000
O    -4.992000000    -2.252000000    -7.515000000
H    -5.299000000    -3.110000000    -7.220000000
H    -4.345000000    -1.992000000    -6.859000000
O     0.441000000     1.988000000    -7.197000000
H    -0.280000000     1.796000000    -7.797000000
H     0.135000000     1.673000000    -6.347000000
O    -1.041000000    -2.217000000    -7.486000000
H    -1.192000000    -1.584000000    -6.784000000
H    -1.164000000    -1.714000000    -8.292000000
O     1.006000000    -4.000000000    -8.493000000
H     0.526000000    -4.829000000    -8.501000000
H     0.452000000    -3.408000000    -7.985000000
O    -0.977000000     2.509000000    -9.604000000
H    -1.917000000     2.331000000    -9.624000000
H    -0.726000000     2.572000000   -10.525000000
O    -0.449000000     4.609000000    -4.977000000
H    -0.481000000     3.684000000    -4.732000000
H    -0.724000000     4.623000000    -5.893000000
O     4.067000000     0.610000000    -6.888000000
H     3.646000000     1.442000000    -6.672000000
H     3.575000000    -0.044000000    -6.392000000
