215
-1471.91532
C    -3.141000000    -3.428000000    -1.948000000
H    -3.664000000    -2.607000000    -1.463000000
C    -2.028000000    -3.990000000    -1.327000000
C    -1.307000000    -4.963000000    -1.965000000
H    -0.432000000    -5.421000000    -1.512000000
C    -1.900000000    -3.717000000     0.140000000
O    -3.173000000    -3.410000000     0.700000000
H    -1.316000000    -2.793000000     0.261000000
O    -1.213000000    -4.874000000     0.780000000
C    -0.251000000    -4.521000000     1.744000000
C     1.081000000    -4.497000000     1.261000000
H     1.266000000    -4.796000000     0.232000000
C     2.057000000    -3.832000000     2.050000000
O     3.326000000    -3.699000000     1.480000000
C     1.740000000    -3.361000000     3.359000000
C     2.882000000    -2.663000000     4.129000000
H     2.626000000    -2.684000000     5.191000000
C     2.927000000    -1.180000000     3.792000000
C     2.250000000    -0.224000000     4.570000000
H     1.588000000    -0.619000000     5.337000000
H     3.825000000    -3.153000000     3.876000000
C     0.419000000    -3.390000000     3.808000000
H     0.167000000    -2.996000000     4.789000000
C    -0.545000000    -3.844000000     2.922000000
C    -2.012000000    -3.795000000     3.418000000
H    -2.057000000    -3.837000000     4.508000000
H    -2.549000000    -4.626000000     2.954000000
C    -2.787000000    -2.561000000     2.889000000
C    -2.826000000    -1.474000000     3.752000000
H    -2.353000000    -1.539000000     4.729000000
C    -3.235000000    -2.392000000     1.582000000
C    -3.889000000    -1.222000000     1.193000000
H    -4.171000000    -1.185000000     0.144000000
C    -3.962000000    -0.114000000     2.046000000
O    -4.464000000     1.048000000     1.490000000
C    -3.609000000     2.122000000     1.158000000
C    -4.156000000     2.743000000    -0.152000000
C    -3.703000000     3.975000000    -0.548000000
H    -3.191000000     4.570000000     0.205000000
C    -4.681000000     1.925000000    -1.129000000
H    -4.947000000     0.900000000    -0.880000000
O    -3.569000000     3.023000000     2.307000000
H    -2.603000000     1.783000000     0.869000000
C    -3.473000000    -0.282000000     3.375000000
C    -3.473000000     0.867000000     4.353000000
H    -3.374000000     0.379000000     5.325000000
H    -4.425000000     1.401000000     4.357000000
C    -2.350000000     1.811000000     4.062000000
C    -1.102000000     1.581000000     4.692000000
H    -0.958000000     0.776000000     5.408000000
C    -2.494000000     2.847000000     3.123000000
C    -1.330000000     3.554000000     2.796000000
H    -1.388000000     4.282000000     1.990000000
C    -0.127000000     3.219000000     3.323000000
O     0.941000000     3.909000000     2.785000000
C     1.753000000     3.213000000     1.820000000
C     2.077000000     4.051000000     0.590000000
C     1.484000000     5.278000000     0.217000000
H     0.846000000     5.704000000     0.987000000
C     2.975000000     3.451000000    -0.288000000
H     3.454000000     2.505000000    -0.051000000
O     2.943000000     2.831000000     2.565000000
H     1.264000000     2.275000000     1.517000000
C     0.034000000     2.241000000     4.246000000
C     1.418000000     2.100000000     4.899000000
H     1.423000000     1.722000000     5.923000000
H     1.935000000     3.058000000     4.982000000
C     2.256000000     1.096000000     4.147000000
C     2.886000000     1.503000000     2.944000000
C     3.681000000     0.583000000     2.285000000
H     4.165000000     0.905000000     1.367000000
C     3.686000000    -0.747000000     2.714000000
O     4.362000000    -1.656000000     1.836000000
C     3.627000000    -2.394000000     0.926000000
H     2.666000000    -1.867000000     0.832000000
C     4.264000000    -2.426000000    -0.448000000
C     3.562000000    -3.112000000    -1.384000000
H     2.713000000    -3.728000000    -1.099000000
C     5.345000000    -1.588000000    -0.786000000
H     5.758000000    -0.891000000    -0.061000000
C     5.712000000    -1.470000000    -2.109000000
O     6.708000000    -0.590000000    -2.446000000
C     4.975000000    -2.083000000    -3.082000000
H     5.078000000    -1.818000000    -4.131000000
C     3.979000000    -2.958000000    -2.736000000
O     3.258000000    -3.644000000    -3.718000000
C     2.542000000    -4.861000000    -3.557000000
C     1.182000000    -4.928000000    -3.811000000
H     0.650000000    -4.018000000    -4.076000000
C     3.234000000    -6.030000000    -3.150000000
H     4.306000000    -6.090000000    -2.983000000
C     2.510000000    -7.276000000    -3.086000000
H     3.061000000    -8.185000000    -2.856000000
C     1.190000000    -7.350000000    -3.375000000
H     0.548000000    -8.222000000    -3.276000000
C     0.506000000    -6.173000000    -3.702000000
O    -0.813000000    -6.236000000    -3.934000000
C    -1.687000000    -5.405000000    -3.215000000
C    -2.750000000    -4.778000000    -3.879000000
H    -2.985000000    -5.091000000    -4.893000000
C    -3.403000000    -3.747000000    -3.240000000
O    -4.410000000    -3.215000000    -3.979000000
C    -5.170000000    -2.145000000    -3.556000000
C    -4.712000000    -0.882000000    -3.661000000
H    -3.786000000    -0.687000000    -4.196000000
C    -6.455000000    -2.499000000    -3.102000000
H    -6.784000000    -3.526000000    -2.968000000
C    -7.301000000    -1.432000000    -2.747000000
H    -8.274000000    -1.650000000    -2.315000000
C    -6.829000000    -0.086000000    -2.802000000
H    -7.411000000     0.801000000    -2.567000000
C    -5.524000000     0.142000000    -3.269000000
O    -5.189000000     1.432000000    -3.470000000
C    -4.733000000     2.323000000    -2.507000000
C    -4.314000000     3.623000000    -2.848000000
H    -4.349000000     3.943000000    -3.886000000
C    -3.749000000     4.441000000    -1.869000000
O    -3.305000000     5.671000000    -2.362000000
C    -2.398000000     6.490000000    -1.618000000
C    -1.049000000     6.407000000    -1.882000000
H    -0.729000000     5.761000000    -2.696000000
C    -2.917000000     7.330000000    -0.691000000
H    -3.979000000     7.269000000    -0.466000000
C    -2.003000000     8.151000000     0.079000000
H    -2.389000000     8.850000000     0.817000000
C    -0.600000000     7.979000000    -0.100000000
H     0.159000000     8.478000000     0.498000000
C    -0.186000000     7.158000000    -1.096000000
O     1.126000000     7.018000000    -1.324000000
C     1.805000000     5.857000000    -0.986000000
C     2.599000000     5.207000000    -1.922000000
H     2.830000000     5.689000000    -2.868000000
C     3.150000000     4.004000000    -1.607000000
O     3.967000000     3.387000000    -2.487000000
C     5.201000000     2.781000000    -2.186000000
C     6.241000000     3.474000000    -1.533000000
H     6.057000000     4.534000000    -1.381000000
C     7.423000000     2.828000000    -1.244000000
H     8.241000000     3.401000000    -0.815000000
C     7.562000000     1.486000000    -1.503000000
H     8.425000000     1.030000000    -1.024000000
C     6.541000000     0.764000000    -2.134000000
C     5.379000000     1.377000000    -2.514000000
H     4.539000000     0.821000000    -2.922000000
C     0.571000000    -0.949000000    -2.323000000
H     0.941000000    -1.719000000    -2.994000000
C     0.524000000    -1.096000000    -0.934000000
H     0.693000000    -2.073000000    -0.488000000
C     0.125000000    -0.088000000    -0.092000000
H     0.115000000    -0.189000000     0.993000000
C    -0.150000000     1.119000000    -0.671000000
H    -0.550000000     1.863000000     0.013000000
C     0.020000000     1.375000000    -2.025000000
H    -0.229000000     2.358000000    -2.417000000
C     0.336000000     0.379000000    -2.887000000
C     0.500000000     0.618000000    -4.380000000
O     0.141000000     1.670000000    -4.929000000
O     0.908000000    -0.275000000    -5.056000000
O    -3.369000000    -0.108000000    -7.045000000
H    -2.539000000    -0.422000000    -6.687000000
H    -3.116000000     0.489000000    -7.749000000
O     2.105000000     0.541000000    -7.407000000
H     1.608000000     0.244000000    -6.645000000
H     2.935000000     0.069000000    -7.351000000
O     0.979000000     2.081000000    -9.940000000
H     0.793000000     1.939000000    -9.012000000
H     1.456000000     1.297000000   -10.211000000
O    -4.634000000     3.339000000    -6.450000000
H    -4.504000000     3.246000000    -7.394000000
H    -3.758000000     3.241000000    -6.077000000
O     0.566000000     6.998000000    -4.878000000
H     1.386000000     7.244000000    -4.449000000
H     0.613000000     6.045000000    -4.957000000
O    -0.318000000    -5.058000000    -6.816000000
H    -1.204000000    -4.715000000    -6.940000000
H     0.221000000    -4.280000000    -6.672000000
O     2.969000000     3.480000000    -7.233000000
H     2.707000000     2.715000000    -7.744000000
H     3.764000000     3.795000000    -7.663000000
O    -2.113000000     3.243000000    -5.497000000
H    -1.356000000     2.724000000    -5.226000000
H    -2.145000000     3.966000000    -4.870000000
O    -2.704000000    -3.618000000    -7.285000000
H    -2.720000000    -3.424000000    -8.222000000
H    -2.745000000    -2.761000000    -6.861000000
O     1.255000000    -2.972000000    -6.506000000
H     2.149000000    -2.676000000    -6.677000000
H     0.948000000    -2.408000000    -5.797000000
O    -0.524000000     2.268000000    -7.456000000
H    -1.132000000     2.867000000    -7.025000000
H    -0.060000000     1.838000000    -6.737000000
O     0.120000000     5.125000000    -8.745000000
H     0.271000000     4.213000000    -8.498000000
H    -0.812000000     5.267000000    -8.580000000
O     1.059000000     4.320000000    -4.994000000
H     0.673000000     3.446000000    -4.938000000
H     1.730000000     4.243000000    -5.672000000
O    -1.571000000    -1.171000000    -5.292000000
H    -1.570000000    -1.379000000    -4.358000000
H    -0.747000000    -0.706000000    -5.435000000
O     5.244000000     0.640000000    -6.813000000
H     4.913000000     1.123000000    -6.055000000
H     5.826000000     1.258000000    -7.254000000
O     5.419000000     4.340000000    -5.753000000
H     4.840000000     4.980000000    -6.166000000
H     4.827000000     3.730000000    -5.314000000
O     3.735000000     2.022000000    -5.055000000
H     3.323000000     2.524000000    -5.758000000
H     3.209000000     2.219000000    -4.280000000
O    -2.037000000     0.910000000    -9.373000000
H    -1.407000000     0.514000000    -9.974000000
H    -1.526000000     1.548000000    -8.875000000
O     3.799000000    -2.030000000    -6.806000000
H     4.294000000    -1.243000000    -7.034000000
H     4.392000000    -2.753000000    -7.009000000
