215
-1435.73094
C    -4.548000000    -1.674000000    -2.183000000
H    -4.413000000    -0.997000000    -3.022000000
C    -4.541000000    -1.191000000    -0.913000000
C    -4.712000000    -2.109000000     0.174000000
H    -4.677000000    -1.843000000     1.227000000
C    -4.119000000     0.274000000    -0.574000000
O    -4.444000000     1.085000000    -1.686000000
H    -3.024000000     0.292000000    -0.471000000
O    -4.885000000     0.774000000     0.588000000
C    -4.120000000     1.548000000     1.484000000
C    -3.510000000     1.017000000     2.586000000
H    -3.608000000    -0.053000000     2.751000000
C    -2.682000000     1.819000000     3.386000000
O    -2.174000000     1.139000000     4.471000000
C    -2.362000000     3.101000000     3.076000000
C    -1.351000000     3.850000000     3.852000000
H    -1.556000000     4.916000000     3.734000000
C     0.065000000     3.543000000     3.456000000
C     0.804000000     4.270000000     2.516000000
H     0.346000000     5.176000000     2.127000000
H    -1.412000000     3.726000000     4.935000000
C    -3.117000000     3.719000000     2.055000000
H    -2.818000000     4.710000000     1.725000000
C    -3.864000000     2.907000000     1.199000000
C    -4.367000000     3.557000000    -0.120000000
H    -4.442000000     4.643000000    -0.032000000
H    -5.328000000     3.136000000    -0.424000000
C    -3.419000000     3.374000000    -1.360000000
C    -2.319000000     4.195000000    -1.647000000
H    -2.313000000     5.135000000    -1.101000000
C    -3.519000000     2.107000000    -2.056000000
C    -2.680000000     1.817000000    -3.104000000
H    -2.964000000     0.935000000    -3.672000000
C    -1.597000000     2.662000000    -3.452000000
O    -0.637000000     2.149000000    -4.399000000
C     0.723000000     1.621000000    -4.025000000
C     1.124000000     0.433000000    -4.901000000
C     2.431000000     0.200000000    -5.319000000
H     3.298000000     0.853000000    -5.287000000
C     0.148000000    -0.550000000    -4.961000000
H    -0.844000000    -0.298000000    -4.594000000
O     1.684000000     2.714000000    -3.994000000
H     0.572000000     1.211000000    -3.015000000
C    -1.368000000     3.829000000    -2.653000000
C    -0.186000000     4.712000000    -2.845000000
H    -0.469000000     5.718000000    -2.529000000
H     0.069000000     4.744000000    -3.906000000
C     1.103000000     4.202000000    -2.154000000
C     1.345000000     4.634000000    -0.841000000
H     0.758000000     5.405000000    -0.350000000
C     1.925000000     3.308000000    -2.797000000
C     2.931000000     2.729000000    -2.146000000
H     3.522000000     1.936000000    -2.598000000
C     3.246000000     3.168000000    -0.844000000
O     4.235000000     2.481000000    -0.164000000
C     3.833000000     1.584000000     0.902000000
C     4.600000000     0.335000000     0.869000000
C     4.673000000    -0.299000000    -0.366000000
H     4.239000000     0.266000000    -1.187000000
C     4.935000000    -0.367000000     2.029000000
H     4.734000000     0.074000000     3.002000000
O     3.883000000     2.220000000     2.163000000
H     2.825000000     1.228000000     0.643000000
C     2.458000000     4.169000000    -0.260000000
C     2.836000000     4.727000000     1.112000000
H     2.609000000     5.789000000     1.224000000
H     3.900000000     4.529000000     1.256000000
C     2.055000000     3.868000000     2.094000000
C     2.698000000     2.706000000     2.588000000
C     1.947000000     1.956000000     3.558000000
H     2.306000000     1.022000000     3.984000000
C     0.703000000     2.420000000     4.043000000
O     0.046000000     1.479000000     4.847000000
C    -0.838000000     0.553000000     4.257000000
H    -0.664000000     0.696000000     3.180000000
C    -0.716000000    -0.856000000     4.687000000
C    -1.810000000    -1.628000000     4.752000000
H    -2.797000000    -1.185000000     4.645000000
C     0.528000000    -1.347000000     5.036000000
H     1.490000000    -0.844000000     4.972000000
C     0.645000000    -2.730000000     5.251000000
O     1.855000000    -3.327000000     5.233000000
C    -0.498000000    -3.494000000     5.273000000
H    -0.439000000    -4.577000000     5.338000000
C    -1.744000000    -3.010000000     4.977000000
O    -2.778000000    -3.825000000     5.182000000
C    -3.990000000    -3.844000000     4.400000000
C    -3.926000000    -3.876000000     2.983000000
H    -2.949000000    -3.801000000     2.513000000
C    -5.240000000    -3.884000000     5.101000000
H    -5.323000000    -3.875000000     6.185000000
C    -6.411000000    -4.047000000     4.336000000
H    -7.371000000    -4.023000000     4.846000000
C    -6.362000000    -4.170000000     2.948000000
H    -7.323000000    -4.138000000     2.441000000
C    -5.136000000    -4.114000000     2.259000000
O    -5.147000000    -4.379000000     0.895000000
C    -4.934000000    -3.453000000    -0.107000000
C    -4.916000000    -3.897000000    -1.433000000
H    -4.993000000    -4.949000000    -1.693000000
C    -4.717000000    -2.980000000    -2.471000000
O    -4.794000000    -3.368000000    -3.817000000
C    -4.066000000    -2.779000000    -4.861000000
C    -2.733000000    -3.072000000    -5.047000000
H    -2.261000000    -3.803000000    -4.396000000
C    -4.638000000    -1.829000000    -5.668000000
H    -5.717000000    -1.706000000    -5.691000000
C    -3.907000000    -1.151000000    -6.665000000
H    -4.475000000    -0.609000000    -7.418000000
C    -2.556000000    -1.404000000    -6.826000000
H    -1.912000000    -0.892000000    -7.537000000
C    -1.982000000    -2.320000000    -5.966000000
O    -0.676000000    -2.638000000    -6.056000000
C     0.358000000    -1.668000000    -5.772000000
C     1.595000000    -1.898000000    -6.282000000
H     1.751000000    -2.832000000    -6.815000000
C     2.674000000    -1.002000000    -6.026000000
O     4.044000000    -1.354000000    -6.197000000
C     4.984000000    -1.269000000    -5.225000000
C     4.688000000    -1.937000000    -4.028000000
H     3.834000000    -2.603000000    -3.932000000
C     6.087000000    -0.477000000    -5.377000000
H     6.281000000    -0.104000000    -6.380000000
C     7.030000000    -0.394000000    -4.360000000
H     7.998000000     0.052000000    -4.575000000
C     6.694000000    -0.920000000    -3.097000000
H     7.416000000    -0.892000000    -2.284000000
C     5.575000000    -1.805000000    -2.973000000
O     5.274000000    -2.299000000    -1.703000000
C     5.198000000    -1.617000000    -0.520000000
C     5.537000000    -2.249000000     0.702000000
H     5.806000000    -3.301000000     0.653000000
C     5.396000000    -1.678000000     1.955000000
O     5.920000000    -2.261000000     3.039000000
C     5.162000000    -2.180000000     4.165000000
C     5.698000000    -1.812000000     5.389000000
H     6.698000000    -1.386000000     5.380000000
C     4.934000000    -1.800000000     6.560000000
H     5.437000000    -1.397000000     7.435000000
C     3.630000000    -2.220000000     6.505000000
H     3.011000000    -2.142000000     7.395000000
C     3.076000000    -2.646000000     5.314000000
C     3.796000000    -2.649000000     4.095000000
H     3.447000000    -3.206000000     3.229000000
C    -1.219000000    -2.130000000    -1.368000000
H    -1.591000000    -2.374000000    -2.359000000
C    -0.746000000    -0.806000000    -1.107000000
H    -0.738000000    -0.033000000    -1.871000000
C    -0.265000000    -0.483000000     0.174000000
H     0.154000000     0.456000000     0.390000000
C    -0.150000000    -1.578000000     1.091000000
H     0.213000000    -1.423000000     2.104000000
C    -0.641000000    -2.908000000     0.851000000
H    -0.509000000    -3.753000000     1.521000000
C    -1.168000000    -3.141000000    -0.419000000
C    -1.661000000    -4.526000000    -0.713000000
O    -1.677000000    -5.439000000     0.096000000
O    -2.017000000    -4.760000000    -1.824000000
O    -4.010000000    -5.810000000    -6.739000000
H    -4.193000000    -6.749000000    -6.738000000
H    -3.711000000    -5.623000000    -5.849000000
O    -5.051000000    -7.445000000    -1.052000000
H    -4.483000000    -8.158000000    -0.760000000
H    -5.908000000    -7.655000000    -0.683000000
O    -3.206000000   -10.292000000    -1.200000000
H    -2.677000000    -9.549000000    -1.490000000
H    -2.618000000   -11.044000000    -1.264000000
O    -3.631000000    -6.415000000    -3.056000000
H    -4.157000000    -6.579000000    -2.273000000
H    -2.968000000    -5.785000000    -2.772000000
O    -5.799000000    -7.644000000    -4.391000000
H    -6.372000000    -7.963000000    -3.694000000
H    -5.143000000    -7.114000000    -3.939000000
O    -1.666000000    -7.744000000    -1.107000000
H    -1.829000000    -6.809000000    -0.982000000
H    -1.023000000    -7.782000000    -1.816000000
O     1.814000000    -7.109000000    -0.317000000
H     1.019000000    -7.102000000     0.216000000
H     1.530000000    -7.445000000    -1.167000000
O    -0.951000000    -9.708000000     0.935000000
H    -0.469000000   -10.104000000     0.208000000
H    -1.130000000    -8.814000000     0.645000000
O     3.669000000    -4.884000000    -2.278000000
H     4.563000000    -4.627000000    -2.049000000
H     3.123000000    -4.479000000    -1.604000000
O    -3.475000000    -7.096000000     1.642000000
H    -4.218000000    -6.583000000     1.323000000
H    -2.768000000    -6.900000000     1.028000000
O     0.056000000    -8.052000000    -3.018000000
H     0.260000000    -7.316000000    -3.595000000
H    -0.007000000    -8.805000000    -3.605000000
O     0.990000000    -5.866000000    -4.450000000
H     0.422000000    -5.627000000    -5.183000000
H     1.156000000    -5.040000000    -3.997000000
O    -2.274000000    -7.757000000     3.813000000
H    -2.795000000    -7.398000000     4.531000000
H    -2.722000000    -7.462000000     3.020000000
O     1.765000000    -6.005000000     3.430000000
H     2.260000000    -5.433000000     2.843000000
H     1.065000000    -6.360000000     2.884000000
O     1.986000000    -3.222000000    -0.617000000
H     1.146000000    -3.003000000    -0.213000000
H     2.124000000    -2.537000000    -1.271000000
O    -1.792000000    -7.700000000    -5.009000000
H    -1.181000000    -7.021000000    -5.294000000
H    -2.306000000    -7.283000000    -4.316000000
O    -7.944000000    -5.330000000    -1.999000000
H    -8.299000000    -5.803000000    -2.752000000
H    -7.206000000    -4.835000000    -2.354000000
O    -0.176000000    -6.776000000     1.685000000
H    -0.684000000    -7.153000000     2.403000000
H    -0.813000000    -6.270000000     1.181000000
O     3.382000000    -5.035000000     1.192000000
H     3.151000000    -4.198000000     0.788000000
H     2.920000000    -5.689000000     0.669000000
