215
-1472.87104
C    -3.519000000    -3.499000000    -1.584000000
H    -4.111000000    -2.940000000    -0.864000000
C    -2.357000000    -4.088000000    -1.055000000
C    -1.536000000    -4.780000000    -1.901000000
H    -0.644000000    -5.207000000    -1.449000000
C    -1.958000000    -3.718000000     0.321000000
O    -3.050000000    -3.661000000     1.216000000
H    -1.517000000    -2.717000000     0.208000000
O    -1.100000000    -4.713000000     0.986000000
C    -0.008000000    -4.255000000     1.638000000
C     1.232000000    -4.214000000     1.007000000
H     1.331000000    -4.504000000    -0.036000000
C     2.289000000    -3.564000000     1.596000000
O     3.438000000    -3.319000000     0.894000000
C     2.215000000    -3.184000000     2.989000000
C     3.297000000    -2.512000000     3.772000000
H     3.042000000    -2.482000000     4.833000000
C     3.500000000    -1.067000000     3.410000000
C     2.734000000    -0.167000000     4.148000000
H     2.097000000    -0.593000000     4.919000000
H     4.233000000    -3.070000000     3.702000000
C     1.005000000    -3.386000000     3.644000000
H     0.823000000    -3.011000000     4.648000000
C    -0.114000000    -3.861000000     2.985000000
C    -1.445000000    -3.924000000     3.720000000
H    -1.393000000    -3.950000000     4.810000000
H    -1.994000000    -4.832000000     3.461000000
C    -2.293000000    -2.678000000     3.294000000
C    -2.353000000    -1.607000000     4.202000000
H    -1.898000000    -1.686000000     5.185000000
C    -3.005000000    -2.612000000     2.126000000
C    -3.677000000    -1.462000000     1.733000000
H    -4.178000000    -1.351000000     0.775000000
C    -3.746000000    -0.369000000     2.565000000
O    -4.315000000     0.830000000     2.143000000
C    -3.576000000     1.881000000     1.607000000
C    -4.384000000     2.422000000     0.388000000
C    -4.469000000     3.745000000     0.125000000
H    -3.988000000     4.425000000     0.823000000
C    -4.920000000     1.544000000    -0.520000000
H    -4.961000000     0.472000000    -0.343000000
O    -3.201000000     2.861000000     2.602000000
H    -2.653000000     1.526000000     1.124000000
C    -2.969000000    -0.420000000     3.755000000
C    -2.867000000     0.833000000     4.634000000
H    -2.694000000     0.546000000     5.673000000
H    -3.833000000     1.340000000     4.594000000
C    -1.780000000     1.799000000     4.148000000
C    -0.539000000     1.703000000     4.653000000
H    -0.309000000     1.056000000     5.496000000
C    -2.004000000     2.737000000     3.119000000
C    -0.976000000     3.539000000     2.601000000
H    -1.177000000     4.191000000     1.755000000
C     0.312000000     3.351000000     3.099000000
O     1.309000000     3.908000000     2.414000000
C     2.176000000     3.166000000     1.542000000
C     2.304000000     3.934000000     0.239000000
C     1.167000000     4.351000000    -0.477000000
H     0.208000000     4.307000000     0.032000000
C     3.557000000     4.130000000    -0.303000000
H     4.503000000     3.908000000     0.183000000
O     3.374000000     2.952000000     2.322000000
H     1.679000000     2.246000000     1.200000000
C     0.527000000     2.405000000     4.070000000
C     1.981000000     2.155000000     4.588000000
H     1.937000000     1.973000000     5.664000000
H     2.554000000     3.083000000     4.541000000
C     2.765000000     1.145000000     3.839000000
C     3.523000000     1.612000000     2.735000000
C     4.141000000     0.731000000     1.908000000
H     4.651000000     1.091000000     1.018000000
C     4.116000000    -0.668000000     2.224000000
O     4.642000000    -1.506000000     1.295000000
C     3.713000000    -1.983000000     0.362000000
H     2.767000000    -1.421000000     0.334000000
C     4.062000000    -2.013000000    -1.151000000
C     3.582000000    -2.936000000    -1.999000000
H     2.964000000    -3.719000000    -1.566000000
C     4.770000000    -0.891000000    -1.656000000
H     5.039000000    -0.105000000    -0.955000000
C     5.161000000    -0.782000000    -2.980000000
O     5.789000000     0.286000000    -3.653000000
C     4.718000000    -1.749000000    -3.881000000
H     4.933000000    -1.683000000    -4.944000000
C     3.841000000    -2.755000000    -3.415000000
O     3.196000000    -3.529000000    -4.353000000
C     2.502000000    -4.720000000    -4.042000000
C     1.151000000    -4.700000000    -4.196000000
H     0.648000000    -3.762000000    -4.419000000
C     3.067000000    -5.830000000    -3.492000000
H     4.134000000    -5.716000000    -3.320000000
C     2.318000000    -6.987000000    -3.229000000
H     2.872000000    -7.863000000    -2.900000000
C     0.952000000    -6.959000000    -3.458000000
H     0.337000000    -7.819000000    -3.207000000
C     0.337000000    -5.797000000    -3.987000000
O    -1.007000000    -5.667000000    -4.162000000
C    -1.860000000    -5.055000000    -3.237000000
C    -3.103000000    -4.564000000    -3.686000000
H    -3.346000000    -4.921000000    -4.683000000
C    -3.973000000    -3.879000000    -2.858000000
O    -5.239000000    -3.543000000    -3.357000000
C    -5.925000000    -2.475000000    -2.724000000
C    -5.469000000    -1.160000000    -2.982000000
H    -4.503000000    -0.937000000    -3.427000000
C    -7.102000000    -2.685000000    -2.016000000
H    -7.382000000    -3.716000000    -1.819000000
C    -7.851000000    -1.641000000    -1.529000000
H    -8.750000000    -1.800000000    -0.940000000
C    -7.446000000    -0.352000000    -1.770000000
H    -7.951000000     0.529000000    -1.383000000
C    -6.240000000    -0.121000000    -2.549000000
O    -5.698000000     1.183000000    -2.776000000
C    -5.263000000     2.015000000    -1.775000000
C    -5.280000000     3.383000000    -2.103000000
H    -5.282000000     3.734000000    -3.131000000
C    -4.878000000     4.274000000    -1.085000000
O    -4.566000000     5.576000000    -1.386000000
C    -3.305000000     6.085000000    -1.081000000
C    -2.217000000     5.681000000    -1.886000000
H    -2.224000000     4.819000000    -2.548000000
C    -3.042000000     6.896000000    -0.018000000
H    -3.834000000     7.227000000     0.648000000
C    -1.789000000     7.295000000     0.300000000
H    -1.615000000     7.926000000     1.168000000
C    -0.730000000     6.849000000    -0.467000000
H     0.256000000     7.135000000    -0.110000000
C    -0.906000000     6.089000000    -1.603000000
O     0.233000000     5.645000000    -2.320000000
C     1.350000000     4.943000000    -1.719000000
C     2.621000000     5.159000000    -2.242000000
H     2.677000000     5.607000000    -3.231000000
C     3.707000000     4.658000000    -1.576000000
O     4.927000000     4.708000000    -2.094000000
C     5.746000000     3.669000000    -2.218000000
C     7.067000000     3.847000000    -1.838000000
H     7.442000000     4.792000000    -1.453000000
C     7.876000000     2.696000000    -1.753000000
H     8.830000000     2.724000000    -1.233000000
C     7.350000000     1.500000000    -2.285000000
H     7.965000000     0.604000000    -2.247000000
C     6.164000000     1.450000000    -2.997000000
C     5.305000000     2.516000000    -2.877000000
H     4.283000000     2.485000000    -3.244000000
C     0.333000000    -0.497000000    -2.419000000
H     0.467000000    -1.288000000    -3.153000000
C     0.139000000    -0.930000000    -1.096000000
H     0.236000000    -1.970000000    -0.794000000
C    -0.083000000    -0.025000000    -0.089000000
H    -0.069000000    -0.431000000     0.939000000
C    -0.332000000     1.312000000    -0.466000000
H    -0.638000000     2.003000000     0.316000000
C    -0.342000000     1.666000000    -1.796000000
H    -0.743000000     2.628000000    -2.105000000
C     0.061000000     0.821000000    -2.767000000
C    -0.070000000     1.273000000    -4.210000000
O    -0.111000000     2.467000000    -4.567000000
O    -0.110000000     0.430000000    -5.150000000
O    -2.126000000    -1.502000000    -8.229000000
H    -2.273000000    -0.580000000    -8.014000000
H    -1.858000000    -1.494000000    -9.148000000
O     1.552000000     0.977000000    -7.140000000
H     0.935000000     0.693000000    -6.466000000
H     1.980000000     0.171000000    -7.430000000
O    -6.607000000     0.804000000    -5.921000000
H    -6.126000000     1.459000000    -6.427000000
H    -6.106000000     0.713000000    -5.110000000
O    -0.808000000     7.159000000    -4.576000000
H    -0.386000000     7.612000000    -5.305000000
H    -0.184000000     6.478000000    -4.324000000
O    -4.694000000     2.462000000    -7.049000000
H    -4.278000000     2.512000000    -7.910000000
H    -4.023000000     2.773000000    -6.441000000
O     2.173000000     7.700000000    -5.519000000
H     2.801000000     7.602000000    -4.802000000
H     1.913000000     6.804000000    -5.733000000
O     1.466000000     3.542000000    -8.381000000
H     1.340000000     2.600000000    -8.496000000
H     2.363000000     3.701000000    -8.674000000
O    -2.374000000     3.383000000    -5.509000000
H    -1.494000000     3.140000000    -5.221000000
H    -2.513000000     4.256000000    -5.143000000
O     2.071000000    -3.054000000    -7.280000000
H     2.637000000    -2.343000000    -7.582000000
H     1.386000000    -2.617000000    -6.776000000
O    -1.964000000     0.962000000    -7.007000000
H    -2.490000000     1.728000000    -6.779000000
H    -1.318000000     0.897000000    -6.303000000
O    -0.191000000     5.690000000    -7.710000000
H     0.233000000     4.835000000    -7.787000000
H    -1.124000000     5.505000000    -7.815000000
O     1.100000000     4.979000000    -5.297000000
H     0.793000000     4.156000000    -4.916000000
H     0.533000000     5.118000000    -6.055000000
O     0.061000000    -1.984000000    -6.102000000
H    -0.675000000    -1.992000000    -6.714000000
H    -0.024000000    -1.153000000    -5.636000000
O     4.472000000     0.868000000    -6.461000000
H     3.655000000     1.342000000    -6.301000000
H     4.950000000     0.929000000    -5.634000000
O    -3.378000000     2.683000000    -9.547000000
H    -2.540000000     2.255000000    -9.727000000
H    -3.903000000     2.521000000   -10.331000000
O    -3.406000000     6.266000000    -5.023000000
H    -2.518000000     6.618000000    -5.081000000
H    -3.954000000     7.027000000    -4.833000000
O     2.810000000     2.871000000    -5.811000000
H     1.995000000     2.397000000    -5.979000000
H     2.535000000     3.667000000    -5.357000000
O    -0.850000000     1.663000000    -9.668000000
H    -0.269000000     0.974000000    -9.990000000
H    -0.981000000     1.452000000    -8.743000000
O     3.802000000    -1.173000000    -7.908000000
H     4.140000000    -0.371000000    -7.510000000
H     4.585000000    -1.680000000    -8.126000000
