215
-1432.60695
C    -4.075000000    -2.902000000    -1.415000000
H    -4.788000000    -2.398000000    -0.768000000
C    -2.885000000    -3.529000000    -0.915000000
C    -2.121000000    -4.308000000    -1.811000000
H    -1.214000000    -4.822000000    -1.505000000
C    -2.356000000    -3.386000000     0.509000000
O    -3.514000000    -3.374000000     1.318000000
H    -1.806000000    -2.433000000     0.515000000
O    -1.487000000    -4.469000000     0.824000000
C    -0.306000000    -4.160000000     1.555000000
C     0.868000000    -4.298000000     0.889000000
H     0.885000000    -4.605000000    -0.153000000
C     2.073000000    -3.908000000     1.525000000
O     3.228000000    -3.793000000     0.813000000
C     1.955000000    -3.380000000     2.827000000
C     3.172000000    -2.899000000     3.655000000
H     2.899000000    -3.045000000     4.702000000
C     3.441000000    -1.433000000     3.394000000
C     2.750000000    -0.473000000     4.130000000
H     2.312000000    -0.788000000     5.074000000
H     4.099000000    -3.446000000     3.474000000
C     0.745000000    -3.298000000     3.516000000
H     0.608000000    -2.930000000     4.530000000
C    -0.457000000    -3.678000000     2.909000000
C    -1.754000000    -3.682000000     3.697000000
H    -1.438000000    -3.728000000     4.741000000
H    -2.241000000    -4.621000000     3.427000000
C    -2.576000000    -2.490000000     3.384000000
C    -2.476000000    -1.401000000     4.258000000
H    -1.818000000    -1.435000000     5.123000000
C    -3.400000000    -2.394000000     2.262000000
C    -3.989000000    -1.194000000     1.950000000
H    -4.535000000    -1.020000000     1.026000000
C    -3.872000000    -0.108000000     2.781000000
O    -4.450000000     1.089000000     2.278000000
C    -3.543000000     1.944000000     1.606000000
C    -4.020000000     2.534000000     0.227000000
C    -3.254000000     3.504000000    -0.451000000
H    -2.310000000     3.848000000    -0.037000000
C    -5.216000000     2.180000000    -0.341000000
H    -5.997000000     1.534000000     0.051000000
O    -2.937000000     2.915000000     2.520000000
H    -2.683000000     1.301000000     1.369000000
C    -3.123000000    -0.145000000     3.981000000
C    -2.860000000     1.114000000     4.880000000
H    -2.567000000     0.778000000     5.876000000
H    -3.771000000     1.705000000     4.997000000
C    -1.640000000     1.842000000     4.232000000
C    -0.367000000     1.618000000     4.817000000
H    -0.220000000     0.995000000     5.695000000
C    -1.747000000     2.594000000     3.065000000
C    -0.634000000     3.263000000     2.553000000
H    -0.749000000     3.856000000     1.649000000
C     0.584000000     3.173000000     3.239000000
O     1.563000000     3.739000000     2.513000000
C     2.358000000     3.040000000     1.550000000
C     2.698000000     3.884000000     0.277000000
C     1.973000000     4.990000000    -0.105000000
H     1.168000000     5.328000000     0.542000000
C     3.668000000     3.386000000    -0.595000000
H     4.164000000     2.458000000    -0.323000000
O     3.596000000     2.580000000     2.136000000
H     1.890000000     2.091000000     1.248000000
C     0.778000000     2.186000000     4.244000000
C     2.110000000     1.906000000     4.668000000
H     2.037000000     1.581000000     5.707000000
H     2.727000000     2.800000000     4.554000000
C     2.799000000     0.896000000     3.797000000
C     3.553000000     1.283000000     2.672000000
C     4.261000000     0.339000000     1.928000000
H     4.752000000     0.619000000     0.999000000
C     4.175000000    -0.994000000     2.252000000
O     4.595000000    -1.853000000     1.290000000
C     3.588000000    -2.418000000     0.404000000
H     2.709000000    -1.776000000     0.560000000
C     4.084000000    -2.453000000    -1.004000000
C     3.389000000    -3.284000000    -1.915000000
H     2.613000000    -3.976000000    -1.598000000
C     5.096000000    -1.658000000    -1.448000000
H     5.598000000    -0.981000000    -0.761000000
C     5.390000000    -1.635000000    -2.779000000
O     6.450000000    -0.879000000    -3.262000000
C     4.736000000    -2.400000000    -3.674000000
H     5.007000000    -2.416000000    -4.727000000
C     3.757000000    -3.324000000    -3.276000000
O     3.140000000    -4.030000000    -4.236000000
C     2.154000000    -4.948000000    -4.045000000
C     0.809000000    -4.547000000    -4.148000000
H     0.655000000    -3.513000000    -4.444000000
C     2.427000000    -6.246000000    -3.603000000
H     3.463000000    -6.518000000    -3.413000000
C     1.357000000    -7.185000000    -3.313000000
H     1.602000000    -8.089000000    -2.761000000
C    -0.005000000    -6.744000000    -3.500000000
H    -0.833000000    -7.349000000    -3.141000000
C    -0.229000000    -5.429000000    -3.914000000
O    -1.570000000    -4.937000000    -4.074000000
C    -2.373000000    -4.273000000    -3.152000000
C    -3.530000000    -3.599000000    -3.601000000
H    -3.780000000    -3.634000000    -4.658000000
C    -4.326000000    -2.900000000    -2.763000000
O    -5.369000000    -2.265000000    -3.354000000
C    -6.218000000    -1.479000000    -2.643000000
C    -5.938000000    -0.142000000    -2.645000000
H    -5.190000000     0.281000000    -3.311000000
C    -7.357000000    -1.989000000    -2.025000000
H    -7.389000000    -3.075000000    -2.016000000
C    -8.321000000    -1.060000000    -1.621000000
H    -9.287000000    -1.404000000    -1.262000000
C    -8.100000000     0.346000000    -1.711000000
H    -8.774000000     1.111000000    -1.336000000
C    -6.870000000     0.738000000    -2.195000000
O    -6.671000000     2.100000000    -2.247000000
C    -5.517000000     2.618000000    -1.693000000
C    -4.776000000     3.593000000    -2.317000000
H    -5.012000000     3.964000000    -3.311000000
C    -3.662000000     4.045000000    -1.658000000
O    -2.956000000     4.982000000    -2.375000000
C    -2.049000000     5.848000000    -1.793000000
C    -0.703000000     5.864000000    -2.089000000
H    -0.240000000     5.234000000    -2.844000000
C    -2.508000000     6.779000000    -0.882000000
H    -3.557000000     6.684000000    -0.614000000
C    -1.690000000     7.665000000    -0.223000000
H    -2.036000000     8.405000000     0.494000000
C    -0.376000000     7.715000000    -0.581000000
H     0.299000000     8.343000000    -0.005000000
C     0.102000000     6.837000000    -1.472000000
O     1.474000000     6.713000000    -1.703000000
C     2.254000000     5.643000000    -1.280000000
C     3.217000000     5.162000000    -2.075000000
H     3.459000000     5.735000000    -2.966000000
C     3.898000000     3.992000000    -1.785000000
O     4.845000000     3.534000000    -2.718000000
C     5.821000000     2.601000000    -2.458000000
C     6.882000000     2.831000000    -1.593000000
H     6.982000000     3.750000000    -1.020000000
C     7.944000000     1.891000000    -1.492000000
H     8.888000000     1.988000000    -0.963000000
C     7.851000000     0.688000000    -2.154000000
H     8.657000000    -0.027000000    -2.012000000
C     6.684000000     0.378000000    -2.826000000
C     5.724000000     1.327000000    -3.076000000
H     4.863000000     1.053000000    -3.679000000
C     0.619000000    -0.761000000    -2.361000000
H     0.784000000    -1.536000000    -3.105000000
C     0.488000000    -1.061000000    -1.019000000
H     0.733000000    -2.078000000    -0.726000000
C     0.011000000    -0.094000000    -0.070000000
H     0.023000000    -0.318000000     1.028000000
C    -0.361000000     1.115000000    -0.571000000
H    -0.804000000     1.837000000     0.111000000
C    -0.226000000     1.443000000    -1.906000000
H    -0.622000000     2.381000000    -2.285000000
C     0.270000000     0.554000000    -2.787000000
C     0.336000000     0.810000000    -4.276000000
O    -0.204000000     1.781000000    -4.756000000
O     0.933000000     0.018000000    -5.018000000
O     5.788000000     3.999000000    -5.776000000
H     5.490000000     4.869000000    -5.510000000
H     4.982000000     3.517000000    -5.962000000
O     3.124000000    -0.324000000    -6.644000000
H     2.407000000    -0.158000000    -6.032000000
H     2.707000000    -0.758000000    -7.389000000
O     2.375000000     2.709000000    -9.359000000
H     1.427000000     2.574000000    -9.368000000
H     2.493000000     3.546000000    -8.910000000
O    -2.078000000     3.976000000    -7.764000000
H    -2.173000000     4.722000000    -8.357000000
H    -1.431000000     3.413000000    -8.189000000
O    -3.807000000     0.007000000    -5.941000000
H    -3.470000000     0.898000000    -5.844000000
H    -3.029000000    -0.549000000    -5.896000000
O     3.132000000     5.221000000    -7.791000000
H     3.548000000     5.284000000    -6.931000000
H     2.651000000     6.043000000    -7.885000000
O    -2.620000000     2.548000000    -5.490000000
H    -1.786000000     2.346000000    -5.066000000
H    -2.377000000     3.021000000    -6.286000000
O     1.318000000     7.057000000    -5.013000000
H     0.545000000     7.512000000    -4.679000000
H     1.050000000     6.139000000    -5.068000000
O    -1.141000000    -0.204000000    -8.887000000
H    -0.718000000    -1.004000000    -9.198000000
H    -1.407000000    -0.406000000    -7.990000000
O    -5.757000000     3.011000000    -6.134000000
H    -4.910000000     2.844000000    -5.719000000
H    -5.546000000     3.167000000    -7.054000000
O    -2.420000000     6.371000000    -5.489000000
H    -3.243000000     6.627000000    -5.905000000
H    -2.349000000     5.431000000    -5.658000000
O     3.345000000     3.099000000    -5.359000000
H     2.467000000     3.457000000    -5.487000000
H     3.381000000     2.878000000    -4.428000000
O    -1.432000000    -1.161000000    -5.813000000
H    -0.572000000    -0.788000000    -5.618000000
H    -1.674000000    -1.633000000    -5.016000000
O     4.283000000    -2.898000000    -8.443000000
H     4.103000000    -3.331000000    -9.277000000
H     3.488000000    -3.034000000    -7.927000000
O    -0.270000000     2.261000000    -9.075000000
H    -0.460000000     1.363000000    -8.804000000
H    -0.570000000     2.306000000    -9.983000000
O     0.754000000     4.231000000    -5.503000000
H     0.488000000     3.476000000    -4.979000000
H     0.144000000     4.238000000    -6.241000000
O    -6.263000000     0.188000000    -6.884000000
H    -6.881000000     0.653000000    -6.319000000
H    -5.467000000     0.115000000    -6.358000000
O     4.879000000     1.431000000    -7.481000000
H     4.276000000     2.125000000    -7.748000000
H     4.319000000     0.772000000    -7.070000000
O     1.871000000    -3.340000000    -7.246000000
H     1.969000000    -3.488000000    -6.306000000
H     0.930000000    -3.216000000    -7.372000000
