215
-1458.82752
C    -3.565000000    -2.839000000    -1.625000000
H    -3.972000000    -2.070000000    -0.973000000
C    -2.556000000    -3.719000000    -1.153000000
C    -1.964000000    -4.559000000    -2.127000000
H    -1.132000000    -5.202000000    -1.852000000
C    -2.098000000    -3.674000000     0.301000000
O    -3.227000000    -3.621000000     1.181000000
H    -1.429000000    -2.801000000     0.319000000
O    -1.339000000    -4.849000000     0.621000000
C    -0.135000000    -4.604000000     1.244000000
C     1.006000000    -4.413000000     0.476000000
H     1.012000000    -4.787000000    -0.544000000
C     2.177000000    -3.975000000     1.037000000
O     3.200000000    -3.712000000     0.144000000
C     2.215000000    -3.602000000     2.362000000
C     3.550000000    -3.183000000     2.985000000
H     3.562000000    -3.416000000     4.052000000
C     3.655000000    -1.646000000     2.722000000
C     3.207000000    -0.785000000     3.719000000
H     2.808000000    -1.190000000     4.645000000
H     4.386000000    -3.755000000     2.576000000
C     1.050000000    -3.826000000     3.166000000
H     1.037000000    -3.444000000     4.184000000
C    -0.093000000    -4.305000000     2.593000000
C    -1.376000000    -4.210000000     3.407000000
H    -1.127000000    -4.407000000     4.452000000
H    -1.939000000    -5.105000000     3.134000000
C    -2.195000000    -2.887000000     3.213000000
C    -1.971000000    -1.899000000     4.158000000
H    -1.179000000    -2.087000000     4.878000000
C    -3.143000000    -2.688000000     2.153000000
C    -3.819000000    -1.449000000     2.109000000
H    -4.454000000    -1.293000000     1.241000000
C    -3.478000000    -0.466000000     3.005000000
O    -4.096000000     0.707000000     2.730000000
C    -3.285000000     1.819000000     2.082000000
C    -4.037000000     2.680000000     1.103000000
C    -3.641000000     3.983000000     0.808000000
H    -2.823000000     4.392000000     1.395000000
C    -5.089000000     2.030000000     0.422000000
H    -5.271000000     0.970000000     0.582000000
O    -2.766000000     2.667000000     3.152000000
H    -2.376000000     1.324000000     1.707000000
C    -2.644000000    -0.769000000     4.094000000
C    -2.323000000     0.396000000     5.046000000
H    -1.840000000    -0.047000000     5.920000000
H    -3.177000000     0.966000000     5.419000000
C    -1.212000000     1.274000000     4.459000000
C     0.118000000     1.117000000     4.839000000
H     0.343000000     0.194000000     5.366000000
C    -1.545000000     2.359000000     3.603000000
C    -0.514000000     3.164000000     3.111000000
H    -0.839000000     3.910000000     2.390000000
C     0.803000000     2.993000000     3.486000000
O     1.717000000     3.766000000     2.780000000
C     2.253000000     3.051000000     1.623000000
C     2.509000000     4.002000000     0.465000000
C     1.570000000     4.956000000     0.193000000
H     0.719000000     5.029000000     0.865000000
C     3.591000000     3.863000000    -0.459000000
H     4.363000000     3.108000000    -0.333000000
O     3.505000000     2.387000000     1.871000000
H     1.528000000     2.325000000     1.227000000
C     1.121000000     1.936000000     4.342000000
C     2.568000000     1.506000000     4.622000000
H     2.516000000     1.013000000     5.595000000
H     3.181000000     2.404000000     4.731000000
C     3.073000000     0.586000000     3.505000000
C     3.531000000     1.087000000     2.256000000
C     4.026000000     0.228000000     1.294000000
H     4.418000000     0.703000000     0.398000000
C     4.195000000    -1.113000000     1.562000000
O     4.570000000    -1.851000000     0.513000000
C     3.444000000    -2.381000000    -0.189000000
H     2.583000000    -1.753000000     0.086000000
C     3.625000000    -2.240000000    -1.709000000
C     3.258000000    -3.271000000    -2.552000000
H     2.633000000    -4.115000000    -2.273000000
C     4.289000000    -1.139000000    -2.215000000
H     4.588000000    -0.383000000    -1.494000000
C     4.624000000    -1.011000000    -3.578000000
O     5.012000000     0.138000000    -4.184000000
C     4.266000000    -2.051000000    -4.413000000
H     4.471000000    -1.916000000    -5.473000000
C     3.582000000    -3.210000000    -3.915000000
O     3.064000000    -4.072000000    -4.852000000
C     2.095000000    -5.036000000    -4.660000000
C     0.775000000    -4.598000000    -4.660000000
H     0.562000000    -3.533000000    -4.705000000
C     2.419000000    -6.396000000    -4.449000000
H     3.470000000    -6.670000000    -4.500000000
C     1.416000000    -7.313000000    -4.273000000
H     1.733000000    -8.336000000    -4.086000000
C     0.069000000    -6.891000000    -4.329000000
H    -0.733000000    -7.613000000    -4.202000000
C    -0.217000000    -5.546000000    -4.356000000
O    -1.537000000    -5.166000000    -4.477000000
C    -2.139000000    -4.362000000    -3.513000000
C    -3.194000000    -3.553000000    -3.886000000
H    -3.441000000    -3.419000000    -4.936000000
C    -3.846000000    -2.762000000    -2.958000000
O    -4.723000000    -1.813000000    -3.412000000
C    -5.683000000    -1.232000000    -2.559000000
C    -5.687000000     0.177000000    -2.373000000
H    -4.986000000     0.894000000    -2.793000000
C    -6.697000000    -1.996000000    -2.057000000
H    -6.621000000    -3.060000000    -2.265000000
C    -7.727000000    -1.402000000    -1.306000000
H    -8.514000000    -2.064000000    -0.956000000
C    -7.734000000    -0.008000000    -1.049000000
H    -8.538000000     0.408000000    -0.447000000
C    -6.719000000     0.742000000    -1.618000000
O    -6.669000000     2.105000000    -1.412000000
C    -5.715000000     2.746000000    -0.612000000
C    -5.365000000     4.058000000    -0.865000000
H    -5.944000000     4.701000000    -1.523000000
C    -4.410000000     4.699000000    -0.090000000
O    -4.144000000     6.049000000    -0.247000000
C    -2.913000000     6.558000000     0.068000000
C    -1.792000000     6.380000000    -0.832000000
H    -1.912000000     5.733000000    -1.697000000
C    -2.730000000     7.293000000     1.222000000
H    -3.616000000     7.556000000     1.794000000
C    -1.447000000     7.912000000     1.476000000
H    -1.305000000     8.454000000     2.408000000
C    -0.411000000     7.763000000     0.581000000
H     0.605000000     8.124000000     0.717000000
C    -0.573000000     6.926000000    -0.515000000
O     0.600000000     6.655000000    -1.225000000
C     1.578000000     5.675000000    -0.983000000
C     2.638000000     5.615000000    -1.850000000
H     2.751000000     6.340000000    -2.652000000
C     3.693000000     4.710000000    -1.585000000
O     4.808000000     4.661000000    -2.374000000
C     5.382000000     3.447000000    -2.708000000
C     6.731000000     3.369000000    -2.435000000
H     7.213000000     4.228000000    -1.974000000
C     7.471000000     2.197000000    -2.502000000
H     8.452000000     2.037000000    -2.062000000
C     6.874000000     1.111000000    -3.111000000
H     7.359000000     0.139000000    -3.152000000
C     5.538000000     1.188000000    -3.489000000
C     4.804000000     2.363000000    -3.417000000
H     3.846000000     2.482000000    -3.917000000
C    -2.044000000     1.079000000    -1.423000000
H    -3.097000000     1.075000000    -1.695000000
C    -1.570000000     0.206000000    -0.398000000
H    -2.239000000    -0.449000000     0.153000000
C    -0.244000000     0.241000000    -0.020000000
H     0.121000000    -0.434000000     0.650000000
C     0.669000000     1.119000000    -0.625000000
H     1.741000000     1.142000000    -0.450000000
C     0.191000000     1.994000000    -1.631000000
H     0.914000000     2.661000000    -2.093000000
C    -1.185000000     2.065000000    -1.970000000
C    -1.556000000     2.986000000    -3.096000000
O    -0.792000000     3.881000000    -3.418000000
O    -2.388000000     2.717000000    -3.925000000
O    -0.380000000    -1.296000000    -5.953000000
H    -0.942000000    -1.671000000    -6.631000000
H    -0.566000000    -1.819000000    -5.173000000
O    -2.377000000     5.966000000    -5.027000000
H    -1.850000000     5.278000000    -4.620000000
H    -1.963000000     6.782000000    -4.746000000
O     3.697000000     3.978000000    -6.411000000
H     2.936000000     3.921000000    -5.834000000
H     4.200000000     4.718000000    -6.071000000
O     1.232000000     4.278000000    -5.149000000
H     0.573000000     4.150000000    -4.467000000
H     1.138000000     5.196000000    -5.404000000
O     0.939000000     2.423000000    -7.680000000
H     1.297000000     3.115000000    -7.125000000
H    -0.010000000     2.530000000    -7.614000000
O    -1.259000000     8.299000000    -3.889000000
H    -1.802000000     8.871000000    -4.431000000
H    -0.361000000     8.502000000    -4.152000000
O    -1.681000000     2.744000000    -6.744000000
H    -2.102000000     3.496000000    -7.159000000
H    -1.720000000     2.934000000    -5.807000000
O    -4.467000000     4.317000000    -4.155000000
H    -3.889000000     5.034000000    -4.418000000
H    -3.884000000     3.679000000    -3.744000000
O     0.068000000    -1.275000000    -2.779000000
H    -0.331000000    -0.405000000    -2.812000000
H     0.978000000    -1.131000000    -3.039000000
O    -3.245000000     0.317000000    -4.841000000
H    -3.075000000     1.219000000    -4.568000000
H    -2.422000000    -0.142000000    -4.677000000
O    -4.024000000     8.911000000    -1.734000000
H    -3.502000000     9.670000000    -1.473000000
H    -3.667000000     8.187000000    -1.218000000
O     2.036000000    -0.159000000    -7.295000000
H     1.366000000    -0.559000000    -6.741000000
H     1.666000000     0.686000000    -7.547000000
O     1.200000000     9.282000000    -2.656000000
H     0.927000000     9.965000000    -2.043000000
H     0.694000000     8.511000000    -2.397000000
O    -7.059000000     6.580000000    -3.574000000
H    -7.172000000     5.708000000    -3.951000000
H    -6.660000000     7.094000000    -4.275000000
O    -7.052000000     3.736000000    -4.807000000
H    -6.250000000     3.805000000    -4.290000000
H    -6.768000000     3.361000000    -5.641000000
O    -5.997000000    -0.091000000    -5.841000000
H    -5.155000000    -0.161000000    -5.392000000
H    -6.097000000    -0.927000000    -6.295000000
O    -2.910000000     5.186000000    -7.589000000
H    -2.575000000     5.592000000    -8.388000000
H    -2.594000000     5.750000000    -6.883000000
O    -3.517000000     0.758000000    -7.719000000
H    -2.677000000     1.160000000    -7.495000000
H    -3.987000000     0.707000000    -6.886000000
O    -5.176000000     4.226000000    -6.916000000
H    -4.456000000     4.706000000    -7.325000000
H    -4.807000000     3.894000000    -6.097000000
