215
-1433.39589
C    -3.910000000    -3.316000000    -1.190000000
H    -4.569000000    -3.233000000    -0.329000000
C    -2.573000000    -3.464000000    -0.987000000
C    -1.744000000    -3.671000000    -2.077000000
H    -0.670000000    -3.801000000    -1.970000000
C    -2.005000000    -3.527000000     0.440000000
O    -3.019000000    -3.468000000     1.501000000
H    -1.246000000    -2.736000000     0.531000000
O    -1.257000000    -4.725000000     0.685000000
C    -0.079000000    -4.390000000     1.316000000
C     1.051000000    -4.284000000     0.535000000
H     0.924000000    -4.592000000    -0.500000000
C     2.270000000    -3.788000000     1.043000000
O     3.289000000    -3.575000000     0.166000000
C     2.344000000    -3.479000000     2.397000000
C     3.664000000    -2.790000000     3.033000000
H     3.609000000    -2.969000000     4.109000000
C     3.811000000    -1.301000000     2.645000000
C     3.425000000    -0.430000000     3.623000000
H     3.189000000    -0.823000000     4.608000000
H     4.584000000    -3.292000000     2.727000000
C     1.277000000    -3.595000000     3.208000000
H     1.431000000    -3.504000000     4.280000000
C     0.078000000    -4.071000000     2.695000000
C    -1.120000000    -4.037000000     3.586000000
H    -0.814000000    -4.197000000     4.622000000
H    -1.678000000    -4.929000000     3.295000000
C    -1.960000000    -2.835000000     3.511000000
C    -1.725000000    -1.775000000     4.415000000
H    -0.976000000    -1.840000000     5.200000000
C    -2.820000000    -2.587000000     2.488000000
C    -3.551000000    -1.457000000     2.505000000
H    -4.350000000    -1.306000000     1.784000000
C    -3.284000000    -0.352000000     3.333000000
O    -3.839000000     0.843000000     3.078000000
C    -3.034000000     1.679000000     2.209000000
C    -3.943000000     2.236000000     1.077000000
C    -3.653000000     3.598000000     0.661000000
H    -2.861000000     4.059000000     1.246000000
C    -4.977000000     1.586000000     0.451000000
H    -5.194000000     0.600000000     0.855000000
O    -2.486000000     2.720000000     3.035000000
H    -2.229000000     1.090000000     1.745000000
C    -2.333000000    -0.544000000     4.288000000
C    -2.005000000     0.670000000     5.136000000
H    -1.528000000     0.404000000     6.082000000
H    -2.862000000     1.304000000     5.370000000
C    -0.948000000     1.495000000     4.456000000
C     0.451000000     1.311000000     4.710000000
H     0.896000000     0.545000000     5.340000000
C    -1.296000000     2.541000000     3.585000000
C    -0.353000000     3.335000000     3.027000000
H    -0.651000000     4.078000000     2.293000000
C     1.006000000     3.177000000     3.332000000
O     1.875000000     3.936000000     2.676000000
C     2.446000000     3.243000000     1.497000000
C     2.512000000     4.133000000     0.244000000
C     1.704000000     5.256000000     0.068000000
H     1.148000000     5.660000000     0.911000000
C     3.173000000     3.593000000    -0.888000000
H     3.747000000     2.672000000    -0.820000000
O     3.789000000     2.717000000     1.840000000
H     1.813000000     2.390000000     1.212000000
C     1.406000000     2.130000000     4.179000000
C     2.868000000     1.822000000     4.524000000
H     2.938000000     1.293000000     5.477000000
H     3.489000000     2.720000000     4.501000000
C     3.380000000     0.928000000     3.379000000
C     3.890000000     1.403000000     2.150000000
C     4.371000000     0.519000000     1.213000000
H     4.772000000     0.821000000     0.249000000
C     4.210000000    -0.821000000     1.450000000
O     4.671000000    -1.709000000     0.496000000
C     3.638000000    -2.267000000    -0.265000000
H     2.749000000    -1.621000000    -0.204000000
C     3.997000000    -2.314000000    -1.782000000
C     3.451000000    -3.211000000    -2.627000000
H     2.786000000    -3.917000000    -2.136000000
C     4.849000000    -1.333000000    -2.413000000
H     5.390000000    -0.575000000    -1.853000000
C     5.109000000    -1.343000000    -3.790000000
O     5.992000000    -0.369000000    -4.236000000
C     4.693000000    -2.407000000    -4.542000000
H     5.013000000    -2.583000000    -5.566000000
C     3.849000000    -3.329000000    -3.991000000
O     3.244000000    -4.192000000    -4.889000000
C     2.099000000    -4.835000000    -4.535000000
C     0.871000000    -4.153000000    -4.723000000
H     0.986000000    -3.114000000    -5.023000000
C     2.131000000    -6.178000000    -4.142000000
H     3.050000000    -6.743000000    -4.005000000
C     0.907000000    -6.763000000    -3.866000000
H     0.780000000    -7.824000000    -3.666000000
C    -0.282000000    -6.005000000    -3.915000000
H    -1.191000000    -6.522000000    -3.618000000
C    -0.318000000    -4.700000000    -4.388000000
O    -1.586000000    -4.011000000    -4.441000000
C    -2.317000000    -3.734000000    -3.335000000
C    -3.641000000    -3.524000000    -3.516000000
H    -4.022000000    -3.484000000    -4.533000000
C    -4.459000000    -3.333000000    -2.467000000
O    -5.830000000    -3.135000000    -2.606000000
C    -6.506000000    -2.186000000    -1.886000000
C    -6.089000000    -0.873000000    -1.850000000
H    -5.204000000    -0.522000000    -2.374000000
C    -7.712000000    -2.547000000    -1.260000000
H    -8.046000000    -3.579000000    -1.326000000
C    -8.508000000    -1.627000000    -0.679000000
H    -9.457000000    -1.979000000    -0.283000000
C    -8.106000000    -0.343000000    -0.632000000
H    -8.742000000     0.403000000    -0.163000000
C    -6.838000000     0.044000000    -1.187000000
O    -6.607000000     1.448000000    -1.362000000
C    -5.617000000     2.187000000    -0.710000000
C    -5.277000000     3.484000000    -1.101000000
H    -5.829000000     3.898000000    -1.942000000
C    -4.266000000     4.205000000    -0.489000000
O    -3.884000000     5.358000000    -1.163000000
C    -2.910000000     6.245000000    -0.736000000
C    -1.653000000     6.224000000    -1.257000000
H    -1.405000000     5.463000000    -1.992000000
C    -3.138000000     7.059000000     0.399000000
H    -4.061000000     6.948000000     0.962000000
C    -2.057000000     7.752000000     0.985000000
H    -2.057000000     8.179000000     1.984000000
C    -0.788000000     7.661000000     0.440000000
H     0.048000000     8.175000000     0.907000000
C    -0.593000000     6.929000000    -0.706000000
O     0.646000000     6.770000000    -1.345000000
C     1.578000000     5.803000000    -1.222000000
C     2.197000000     5.244000000    -2.315000000
H     2.162000000     5.830000000    -3.230000000
C     2.999000000     4.100000000    -2.150000000
O     3.603000000     3.573000000    -3.233000000
C     4.817000000     2.914000000    -3.247000000
C     6.007000000     3.485000000    -2.763000000
H     6.023000000     4.544000000    -2.517000000
C     7.157000000     2.714000000    -2.691000000
H     8.064000000     3.167000000    -2.299000000
C     7.194000000     1.471000000    -3.272000000
H     8.082000000     0.866000000    -3.103000000
C     6.027000000     0.900000000    -3.689000000
C     4.839000000     1.647000000    -3.730000000
H     3.949000000     1.254000000    -4.217000000
C    -1.714000000     0.028000000    -1.920000000
H    -2.765000000    -0.075000000    -2.175000000
C    -1.366000000    -0.171000000    -0.601000000
H    -2.121000000    -0.528000000     0.095000000
C    -0.038000000    -0.019000000    -0.198000000
H     0.213000000    -0.263000000     0.812000000
C     0.942000000     0.284000000    -1.134000000
H     1.957000000     0.388000000    -0.758000000
C     0.567000000     0.587000000    -2.442000000
H     1.264000000     0.918000000    -3.208000000
C    -0.764000000     0.400000000    -2.901000000
C    -1.253000000     0.641000000    -4.351000000
O    -0.527000000     1.015000000    -5.270000000
O    -2.460000000     0.828000000    -4.589000000
O     0.154000000     0.481000000    -7.902000000
H     0.769000000    -0.253000000    -7.924000000
H    -0.089000000     0.561000000    -6.980000000
O    -1.966000000    -2.577000000    -7.324000000
H    -1.098000000    -2.896000000    -7.571000000
H    -2.492000000    -3.370000000    -7.219000000
O     1.790000000     4.099000000    -6.859000000
H     1.241000000     4.436000000    -6.151000000
H     1.571000000     4.646000000    -7.613000000
O    -0.704000000     3.591000000    -5.395000000
H    -1.560000000     3.924000000    -5.125000000
H    -0.770000000     2.643000000    -5.281000000
O    -3.187000000     5.053000000    -7.139000000
H    -3.785000000     4.865000000    -6.417000000
H    -2.999000000     5.988000000    -7.058000000
O    -3.559000000     3.061000000    -3.598000000
H    -3.114000000     3.160000000    -2.756000000
H    -3.278000000     2.205000000    -3.919000000
O    -3.790000000    -1.393000000    -5.802000000
H    -3.442000000    -0.602000000    -5.392000000
H    -3.016000000    -1.854000000    -6.127000000
O    -3.030000000     1.716000000    -7.019000000
H    -2.281000000     1.863000000    -7.597000000
H    -2.645000000     1.384000000    -6.208000000
O     3.718000000     1.925000000    -8.325000000
H     3.073000000     1.864000000    -7.621000000
H     3.613000000     2.812000000    -8.670000000
O     2.160000000     1.270000000    -6.002000000
H     1.406000000     1.005000000    -5.476000000
H     2.138000000     2.227000000    -5.987000000
O     0.859000000    -3.574000000    -8.517000000
H     1.397000000    -4.339000000    -8.316000000
H     1.455000000    -2.831000000    -8.422000000
O    -5.154000000     4.290000000    -5.382000000
H    -4.564000000     3.827000000    -4.787000000
H    -5.602000000     3.595000000    -5.864000000
O    -1.379000000     3.774000000    -8.747000000
H    -1.922000000     4.236000000    -8.108000000
H    -0.536000000     3.661000000    -8.308000000
O    -2.027000000     0.012000000    -9.489000000
H    -1.421000000    -0.149000000    -8.766000000
H    -2.702000000    -0.660000000    -9.390000000
O     2.386000000    -1.015000000    -8.309000000
H     3.220000000    -1.305000000    -8.680000000
H     2.632000000    -0.397000000    -7.621000000
O    -4.904000000    -0.217000000    -7.934000000
H    -4.286000000     0.460000000    -8.209000000
H    -4.439000000    -0.705000000    -7.254000000
O     1.551000000     0.933000000   -10.177000000
H     0.930000000     0.928000000    -9.448000000
H     2.358000000     0.576000000    -9.806000000
O    -6.293000000     1.286000000    -4.934000000
H    -6.453000000     1.385000000    -5.872000000
H    -5.343000000     1.360000000    -4.843000000
O    -5.617000000     2.798000000    -7.358000000
H    -4.759000000     2.411000000    -7.188000000
H    -5.701000000     2.787000000    -8.311000000
