215
-1459.89667
C    -2.914000000    -3.023000000    -1.376000000
H    -3.415000000    -2.390000000    -0.648000000
C    -1.815000000    -3.823000000    -1.011000000
C    -1.011000000    -4.480000000    -1.955000000
H    -0.064000000    -4.978000000    -1.765000000
C    -1.482000000    -3.806000000     0.500000000
O    -2.696000000    -3.744000000     1.319000000
H    -0.988000000    -2.831000000     0.624000000
O    -0.600000000    -4.924000000     0.902000000
C     0.535000000    -4.477000000     1.605000000
C     1.699000000    -4.325000000     0.903000000
H     1.762000000    -4.662000000    -0.129000000
C     2.771000000    -3.655000000     1.516000000
O     3.793000000    -3.524000000     0.651000000
C     2.695000000    -3.231000000     2.782000000
C     3.907000000    -2.400000000     3.251000000
H     3.919000000    -2.508000000     4.337000000
C     3.800000000    -0.925000000     2.831000000
C     3.126000000    -0.078000000     3.730000000
H     2.669000000    -0.480000000     4.631000000
H     4.869000000    -2.819000000     2.950000000
C     1.546000000    -3.354000000     3.518000000
H     1.483000000    -2.937000000     4.520000000
C     0.439000000    -3.986000000     2.940000000
C    -0.881000000    -3.986000000     3.671000000
H    -0.680000000    -4.085000000     4.739000000
H    -1.450000000    -4.870000000     3.375000000
C    -1.778000000    -2.835000000     3.486000000
C    -1.664000000    -1.763000000     4.377000000
H    -1.070000000    -1.852000000     5.283000000
C    -2.651000000    -2.772000000     2.348000000
C    -3.441000000    -1.616000000     2.195000000
H    -4.172000000    -1.558000000     1.393000000
C    -3.285000000    -0.538000000     3.085000000
O    -4.021000000     0.558000000     2.715000000
C    -3.449000000     1.828000000     2.254000000
C    -4.454000000     2.479000000     1.333000000
C    -4.516000000     3.899000000     1.257000000
H    -3.851000000     4.492000000     1.880000000
C    -5.197000000     1.726000000     0.401000000
H    -5.252000000     0.655000000     0.583000000
O    -2.984000000     2.678000000     3.309000000
H    -2.596000000     1.460000000     1.665000000
C    -2.440000000    -0.586000000     4.206000000
C    -2.326000000     0.603000000     5.125000000
H    -1.972000000     0.286000000     6.108000000
H    -3.286000000     1.034000000     5.415000000
C    -1.296000000     1.586000000     4.615000000
C     0.060000000     1.449000000     4.977000000
H     0.275000000     0.729000000     5.763000000
C    -1.700000000     2.521000000     3.669000000
C    -0.758000000     3.349000000     3.094000000
H    -1.196000000     4.099000000     2.440000000
C     0.549000000     3.183000000     3.389000000
O     1.397000000     3.947000000     2.642000000
C     2.027000000     3.277000000     1.515000000
C     1.877000000     4.017000000     0.156000000
C     0.668000000     4.693000000    -0.118000000
H    -0.139000000     4.818000000     0.600000000
C     2.906000000     3.871000000    -0.793000000
H     3.770000000     3.254000000    -0.562000000
O     3.409000000     3.054000000     1.891000000
H     1.558000000     2.284000000     1.453000000
C     1.004000000     2.247000000     4.321000000
C     2.531000000     2.153000000     4.572000000
H     2.566000000     1.753000000     5.588000000
H     3.034000000     3.122000000     4.552000000
C     3.126000000     1.266000000     3.470000000
C     3.702000000     1.787000000     2.323000000
C     4.269000000     0.876000000     1.413000000
H     4.665000000     1.244000000     0.470000000
C     4.341000000    -0.485000000     1.684000000
O     4.822000000    -1.390000000     0.735000000
C     3.883000000    -2.251000000     0.060000000
H     2.827000000    -1.943000000     0.037000000
C     4.185000000    -2.392000000    -1.388000000
C     3.942000000    -3.598000000    -2.108000000
H     3.558000000    -4.517000000    -1.673000000
C     4.471000000    -1.230000000    -2.108000000
H     4.446000000    -0.263000000    -1.611000000
C     4.832000000    -1.246000000    -3.432000000
O     5.152000000    -0.153000000    -4.134000000
C     4.676000000    -2.425000000    -4.119000000
H     4.963000000    -2.521000000    -5.163000000
C     4.194000000    -3.618000000    -3.474000000
O     4.047000000    -4.776000000    -4.197000000
C     2.880000000    -5.510000000    -4.220000000
C     1.651000000    -4.945000000    -4.011000000
H     1.572000000    -3.896000000    -3.738000000
C     2.959000000    -6.805000000    -4.696000000
H     3.914000000    -7.322000000    -4.650000000
C     1.805000000    -7.563000000    -4.962000000
H     1.808000000    -8.598000000    -5.293000000
C     0.592000000    -6.952000000    -4.756000000
H    -0.355000000    -7.478000000    -4.842000000
C     0.480000000    -5.647000000    -4.361000000
O    -0.785000000    -5.121000000    -4.335000000
C    -1.483000000    -4.499000000    -3.287000000
C    -2.461000000    -3.588000000    -3.655000000
H    -2.733000000    -3.496000000    -4.703000000
C    -3.198000000    -2.932000000    -2.707000000
O    -4.155000000    -2.013000000    -3.183000000
C    -5.299000000    -1.663000000    -2.517000000
C    -5.413000000    -0.299000000    -2.179000000
H    -4.555000000     0.348000000    -2.340000000
C    -6.358000000    -2.492000000    -2.299000000
H    -6.307000000    -3.567000000    -2.455000000
C    -7.531000000    -2.012000000    -1.769000000
H    -8.339000000    -2.705000000    -1.551000000
C    -7.634000000    -0.592000000    -1.475000000
H    -8.586000000    -0.120000000    -1.243000000
C    -6.580000000     0.259000000    -1.689000000
O    -6.765000000     1.580000000    -1.439000000
C    -5.997000000     2.299000000    -0.552000000
C    -6.006000000     3.710000000    -0.683000000
H    -6.527000000     4.261000000    -1.463000000
C    -5.268000000     4.493000000     0.224000000
O    -5.157000000     5.816000000    -0.071000000
C    -3.880000000     6.393000000    -0.199000000
C    -2.810000000     5.747000000    -0.811000000
H    -2.890000000     4.672000000    -0.955000000
C    -3.814000000     7.762000000     0.008000000
H    -4.654000000     8.269000000     0.474000000
C    -2.657000000     8.500000000    -0.333000000
H    -2.494000000     9.545000000    -0.085000000
C    -1.563000000     7.891000000    -0.952000000
H    -0.715000000     8.517000000    -1.217000000
C    -1.599000000     6.452000000    -1.134000000
O    -0.662000000     5.736000000    -1.891000000
C     0.523000000     5.151000000    -1.441000000
C     1.500000000     5.009000000    -2.416000000
H     1.276000000     5.266000000    -3.448000000
C     2.721000000     4.407000000    -2.046000000
O     3.727000000     4.233000000    -3.022000000
C     4.736000000     3.326000000    -2.986000000
C     5.859000000     3.593000000    -2.244000000
H     5.972000000     4.469000000    -1.611000000
C     6.776000000     2.629000000    -2.057000000
H     7.678000000     2.866000000    -1.498000000
C     6.559000000     1.341000000    -2.650000000
H     7.222000000     0.519000000    -2.390000000
C     5.475000000     1.095000000    -3.514000000
C     4.569000000     2.145000000    -3.694000000
H     3.722000000     1.831000000    -4.297000000
C    -1.380000000     1.212000000    -1.822000000
H    -2.331000000     1.551000000    -2.225000000
C    -1.193000000     0.684000000    -0.583000000
H    -2.061000000     0.466000000     0.035000000
C     0.100000000     0.405000000    -0.074000000
H     0.200000000     0.008000000     1.023000000
C     1.186000000     0.576000000    -0.879000000
H     2.168000000     0.310000000    -0.498000000
C     1.023000000     1.084000000    -2.212000000
H     1.893000000     1.324000000    -2.818000000
C    -0.229000000     1.496000000    -2.627000000
C    -0.306000000     1.998000000    -4.057000000
O     0.634000000     2.122000000    -4.780000000
O    -1.474000000     2.004000000    -4.489000000
O    -1.439000000    -1.489000000    -6.129000000
H    -0.769000000    -2.151000000    -6.301000000
H    -1.005000000    -0.853000000    -5.560000000
O     4.320000000     5.980000000    -5.406000000
H     4.917000000     5.440000000    -5.924000000
H     3.970000000     5.382000000    -4.745000000
O    -4.066000000     7.625000000    -3.202000000
H    -4.602000000     7.049000000    -3.748000000
H    -3.189000000     7.244000000    -3.241000000
O    -2.653000000     4.512000000    -4.361000000
H    -2.287000000     3.631000000    -4.442000000
H    -1.942000000     5.033000000    -3.987000000
O     0.536000000     3.579000000    -6.845000000
H     0.653000000     3.232000000    -5.961000000
H    -0.146000000     3.029000000    -7.229000000
O    -2.357000000     2.437000000    -7.025000000
H    -3.149000000     2.940000000    -6.839000000
H    -1.915000000     2.363000000    -6.179000000
O    -5.089000000     3.303000000    -4.903000000
H    -4.368000000     3.933000000    -4.913000000
H    -4.736000000     2.544000000    -4.439000000
O     0.313000000    -1.909000000    -2.760000000
H    -0.485000000    -2.329000000    -3.080000000
H     0.024000000    -1.049000000    -2.454000000
O    -3.616000000     0.684000000    -4.722000000
H    -2.762000000     1.117000000    -4.717000000
H    -3.487000000    -0.105000000    -4.196000000
O     5.103000000     0.985000000    -7.173000000
H     4.334000000     0.609000000    -6.745000000
H     4.745000000     1.608000000    -7.805000000
O     2.336000000     0.674000000    -6.398000000
H     1.755000000     0.496000000    -7.137000000
H     1.921000000     1.403000000    -5.936000000
O    -1.390000000     4.386000000    -9.514000000
H    -1.154000000     3.488000000    -9.748000000
H    -2.347000000     4.388000000    -9.507000000
O     0.801000000    -2.435000000    -8.179000000
H     0.862000000    -2.199000000    -7.253000000
H     0.808000000    -3.393000000    -8.182000000
O    -1.138000000     1.750000000   -10.539000000
H    -1.919000000     2.106000000   -10.962000000
H    -1.470000000     1.067000000    -9.956000000
O    -5.813000000    -0.250000000    -5.817000000
H    -4.988000000     0.169000000    -5.571000000
H    -5.575000000    -0.852000000    -6.521000000
O     1.473000000     1.446000000    -9.781000000
H     0.691000000     1.623000000   -10.304000000
H     1.699000000     0.539000000    -9.988000000
O    -1.751000000     0.255000000    -8.255000000
H    -2.357000000     0.841000000    -7.801000000
H    -1.365000000    -0.276000000    -7.559000000
O     2.466000000     5.178000000    -8.048000000
H     1.847000000     5.476000000    -8.714000000
H     1.943000000     4.633000000    -7.461000000
O     1.236000000    -1.748000000    -5.378000000
H     1.952000000    -1.114000000    -5.416000000
H     1.052000000    -1.845000000    -4.444000000
