215
-1431.93506
C    -4.513000000    -3.034000000    -1.248000000
H    -4.852000000    -2.380000000    -0.449000000
C    -3.307000000    -3.722000000    -0.923000000
C    -2.682000000    -4.409000000    -1.963000000
H    -1.740000000    -4.913000000    -1.763000000
C    -2.685000000    -3.546000000     0.377000000
O    -3.589000000    -3.239000000     1.411000000
H    -2.025000000    -2.666000000     0.365000000
O    -1.866000000    -4.751000000     0.745000000
C    -0.660000000    -4.570000000     1.433000000
C     0.447000000    -4.548000000     0.615000000
H     0.361000000    -4.875000000    -0.418000000
C     1.627000000    -4.110000000     1.048000000
O     2.604000000    -4.065000000     0.085000000
C     1.833000000    -3.728000000     2.349000000
C     3.212000000    -3.346000000     2.898000000
H     3.238000000    -3.560000000     3.968000000
C     3.561000000    -1.896000000     2.706000000
C     3.441000000    -1.089000000     3.845000000
H     3.066000000    -1.519000000     4.771000000
H     3.931000000    -4.051000000     2.475000000
C     0.759000000    -3.771000000     3.202000000
H     0.963000000    -3.602000000     4.257000000
C    -0.520000000    -4.172000000     2.761000000
C    -1.739000000    -3.910000000     3.688000000
H    -1.444000000    -3.996000000     4.736000000
H    -2.419000000    -4.739000000     3.478000000
C    -2.313000000    -2.597000000     3.402000000
C    -1.874000000    -1.528000000     4.248000000
H    -1.378000000    -1.731000000     5.194000000
C    -3.224000000    -2.344000000     2.355000000
C    -3.680000000    -1.055000000     2.254000000
H    -4.404000000    -0.872000000     1.464000000
C    -3.236000000    -0.002000000     3.044000000
O    -3.611000000     1.282000000     2.653000000
C    -2.495000000     2.073000000     2.084000000
C    -2.890000000     2.752000000     0.728000000
C    -2.528000000     4.039000000     0.416000000
H    -1.842000000     4.625000000     1.022000000
C    -3.689000000     2.028000000    -0.167000000
H    -3.995000000     1.012000000     0.070000000
O    -2.013000000     3.012000000     3.030000000
H    -1.761000000     1.307000000     1.790000000
C    -2.337000000    -0.269000000     4.086000000
C    -1.886000000     0.794000000     4.996000000
H    -1.663000000     0.423000000     5.999000000
H    -2.692000000     1.493000000     5.229000000
C    -0.656000000     1.591000000     4.500000000
C     0.555000000     1.197000000     4.965000000
H     0.661000000     0.544000000     5.827000000
C    -0.834000000     2.659000000     3.600000000
C     0.287000000     3.297000000     3.141000000
H     0.262000000     4.037000000     2.345000000
C     1.557000000     2.905000000     3.618000000
O     2.623000000     3.490000000     2.982000000
C     3.114000000     2.885000000     1.840000000
C     3.298000000     3.871000000     0.675000000
C     2.631000000     5.116000000     0.735000000
H     2.022000000     5.527000000     1.537000000
C     3.971000000     3.501000000    -0.489000000
H     4.370000000     2.498000000    -0.615000000
O     4.327000000     2.131000000     2.154000000
H     2.381000000     2.175000000     1.430000000
C     1.704000000     1.854000000     4.511000000
C     3.006000000     1.212000000     4.791000000
H     2.952000000     0.587000000     5.685000000
H     3.708000000     2.016000000     5.023000000
C     3.615000000     0.287000000     3.715000000
C     4.136000000     0.788000000     2.456000000
C     4.369000000    -0.033000000     1.369000000
H     4.828000000     0.361000000     0.466000000
C     3.975000000    -1.343000000     1.476000000
O     4.050000000    -2.105000000     0.364000000
C     2.848000000    -2.642000000    -0.274000000
H     2.018000000    -2.053000000     0.141000000
C     2.867000000    -2.516000000    -1.764000000
C     2.266000000    -3.418000000    -2.622000000
H     1.847000000    -4.278000000    -2.106000000
C     3.552000000    -1.462000000    -2.405000000
H     3.968000000    -0.629000000    -1.845000000
C     3.588000000    -1.314000000    -3.822000000
O     4.201000000    -0.308000000    -4.529000000
C     2.877000000    -2.204000000    -4.570000000
H     2.935000000    -2.143000000    -5.654000000
C     2.324000000    -3.303000000    -4.018000000
O     1.767000000    -4.225000000    -4.845000000
C     0.822000000    -5.111000000    -4.489000000
C    -0.512000000    -4.771000000    -4.464000000
H    -0.813000000    -3.730000000    -4.543000000
C     1.231000000    -6.414000000    -4.201000000
H     2.291000000    -6.649000000    -4.252000000
C     0.243000000    -7.423000000    -4.076000000
H     0.541000000    -8.447000000    -3.867000000
C    -1.107000000    -7.078000000    -4.030000000
H    -1.771000000    -7.937000000    -3.983000000
C    -1.484000000    -5.783000000    -4.315000000
O    -2.747000000    -5.423000000    -4.162000000
C    -3.275000000    -4.557000000    -3.246000000
C    -4.542000000    -3.994000000    -3.462000000
H    -5.000000000    -4.026000000    -4.447000000
C    -5.103000000    -3.177000000    -2.482000000
O    -6.312000000    -2.537000000    -2.774000000
C    -6.523000000    -1.327000000    -2.253000000
C    -5.537000000    -0.367000000    -2.390000000
H    -4.651000000    -0.642000000    -2.957000000
C    -7.713000000    -0.963000000    -1.616000000
H    -8.464000000    -1.741000000    -1.507000000
C    -7.867000000     0.323000000    -1.047000000
H    -8.745000000     0.697000000    -0.526000000
C    -6.913000000     1.285000000    -1.283000000
H    -7.050000000     2.279000000    -0.865000000
C    -5.752000000     0.906000000    -1.910000000
O    -4.870000000     1.844000000    -2.298000000
C    -4.121000000     2.589000000    -1.387000000
C    -3.686000000     3.878000000    -1.708000000
H    -4.099000000     4.330000000    -2.606000000
C    -2.904000000     4.648000000    -0.826000000
O    -2.498000000     5.879000000    -1.270000000
C    -1.559000000     6.748000000    -0.710000000
C    -0.194000000     6.511000000    -0.791000000
H     0.148000000     5.738000000    -1.474000000
C    -1.961000000     7.896000000     0.028000000
H    -2.993000000     8.180000000     0.219000000
C    -1.048000000     8.692000000     0.617000000
H    -1.448000000     9.534000000     1.176000000
C     0.265000000     8.430000000     0.592000000
H     1.004000000     9.123000000     0.987000000
C     0.686000000     7.348000000    -0.156000000
O     2.082000000     7.241000000    -0.327000000
C     2.701000000     5.997000000    -0.375000000
C     3.536000000     5.656000000    -1.425000000
H     3.640000000     6.448000000    -2.163000000
C     4.123000000     4.426000000    -1.520000000
O     4.642000000     3.982000000    -2.721000000
C     5.244000000     2.817000000    -3.044000000
C     6.508000000     2.492000000    -2.565000000
H     7.059000000     3.122000000    -1.872000000
C     7.015000000     1.268000000    -2.722000000
H     8.010000000     1.085000000    -2.322000000
C     6.259000000     0.288000000    -3.305000000
H     6.709000000    -0.702000000    -3.332000000
C     5.017000000     0.576000000    -3.837000000
C     4.519000000     1.825000000    -3.704000000
H     3.505000000     1.951000000    -4.077000000
C    -1.540000000    -0.682000000    -2.501000000
H    -2.515000000    -1.130000000    -2.680000000
C    -1.219000000    -0.371000000    -1.163000000
H    -1.927000000    -0.672000000    -0.395000000
C     0.009000000     0.202000000    -0.834000000
H     0.154000000     0.377000000     0.197000000
C     0.932000000     0.340000000    -1.892000000
H     1.971000000     0.647000000    -1.803000000
C     0.610000000     0.153000000    -3.255000000
H     1.379000000     0.399000000    -3.983000000
C    -0.666000000    -0.340000000    -3.538000000
C    -0.985000000    -0.704000000    -5.004000000
O    -0.410000000    -0.139000000    -5.897000000
O    -2.082000000    -1.157000000    -5.258000000
O     0.772000000    -2.296000000    -7.777000000
H     0.065000000    -2.754000000    -8.231000000
H     0.418000000    -2.109000000    -6.908000000
O    -1.198000000    -3.668000000    -8.948000000
H    -1.431000000    -4.440000000    -9.464000000
H    -1.688000000    -3.768000000    -8.132000000
O    -1.367000000     2.652000000    -5.530000000
H    -2.298000000     2.472000000    -5.400000000
H    -0.942000000     1.802000000    -5.423000000
O    -1.412000000     4.908000000    -4.236000000
H    -2.164000000     4.655000000    -3.701000000
H    -1.162000000     4.105000000    -4.693000000
O    -2.194000000    -1.354000000   -10.308000000
H    -1.901000000    -1.615000000   -11.181000000
H    -2.141000000    -2.156000000    -9.788000000
O    -4.798000000    -0.527000000    -5.808000000
H    -4.823000000    -0.782000000    -6.730000000
H    -3.898000000    -0.704000000    -5.535000000
O    -3.128000000    -3.061000000    -6.923000000
H    -2.513000000    -2.612000000    -6.342000000
H    -3.371000000    -3.855000000    -6.447000000
O    -4.068000000     2.207000000    -4.985000000
H    -4.764000000     2.647000000    -4.498000000
H    -4.105000000     1.298000000    -4.688000000
O     2.931000000     3.602000000    -6.540000000
H     2.469000000     2.764000000    -6.564000000
H     2.601000000     4.034000000    -5.753000000
O     1.650000000     1.124000000    -7.245000000
H     1.204000000     1.840000000    -7.698000000
H     0.948000000     0.649000000    -6.800000000
O     1.600000000    -4.666000000    -9.894000000
H     1.829000000    -5.466000000    -9.421000000
H     1.352000000    -4.046000000    -9.209000000
O    -0.016000000     3.348000000    -7.819000000
H     0.354000000     4.231000000    -7.801000000
H    -0.472000000     3.263000000    -6.982000000
O     3.124000000    -1.147000000    -8.234000000
H     2.363000000    -1.724000000    -8.297000000
H     2.798000000    -0.370000000    -7.780000000
O    -5.773000000    -2.837000000    -7.356000000
H    -4.961000000    -3.342000000    -7.391000000
H    -5.868000000    -2.599000000    -6.434000000
O    -2.366000000     0.160000000    -7.638000000
H    -1.988000000    -0.189000000    -6.831000000
H    -2.036000000    -0.418000000    -8.326000000
O    -1.960000000     2.630000000    -9.886000000
H    -1.321000000     2.662000000    -9.174000000
H    -2.807000000     2.743000000    -9.454000000
O     0.082000000    -0.156000000   -10.022000000
H     0.331000000    -0.346000000    -9.118000000
H    -0.785000000    -0.550000000   -10.119000000
O    -7.349000000    -1.330000000    -5.532000000
H    -7.907000000    -0.807000000    -4.957000000
H    -6.537000000    -0.827000000    -5.600000000
O    -3.658000000     2.550000000    -7.615000000
H    -3.980000000     2.510000000    -6.714000000
H    -3.249000000     1.697000000    -7.761000000
