215
-1444.19529
C    -4.440000000    -2.986000000    -1.062000000
H    -5.052000000    -2.586000000    -0.257000000
C    -3.196000000    -3.512000000    -0.779000000
C    -2.467000000    -4.103000000    -1.793000000
H    -1.460000000    -4.429000000    -1.543000000
C    -2.670000000    -3.350000000     0.660000000
O    -3.805000000    -3.221000000     1.600000000
H    -2.098000000    -2.420000000     0.791000000
O    -1.839000000    -4.457000000     1.009000000
C    -0.632000000    -4.234000000     1.674000000
C     0.501000000    -4.274000000     0.936000000
H     0.465000000    -4.514000000    -0.123000000
C     1.705000000    -3.893000000     1.462000000
O     2.750000000    -3.743000000     0.510000000
C     1.837000000    -3.406000000     2.749000000
C     3.152000000    -3.002000000     3.400000000
H     3.208000000    -3.378000000     4.424000000
C     3.431000000    -1.539000000     3.121000000
C     3.205000000    -0.540000000     4.045000000
H     2.675000000    -0.785000000     4.962000000
H     3.826000000    -3.606000000     2.788000000
C     0.701000000    -3.480000000     3.522000000
H     0.879000000    -3.060000000     4.508000000
C    -0.544000000    -3.780000000     3.022000000
C    -1.828000000    -3.727000000     3.862000000
H    -1.676000000    -3.804000000     4.941000000
H    -2.432000000    -4.595000000     3.590000000
C    -2.548000000    -2.409000000     3.614000000
C    -2.135000000    -1.289000000     4.352000000
H    -1.359000000    -1.533000000     5.073000000
C    -3.455000000    -2.263000000     2.554000000
C    -4.021000000    -1.025000000     2.304000000
H    -4.644000000    -0.947000000     1.417000000
C    -3.642000000     0.067000000     3.043000000
O    -4.105000000     1.302000000     2.545000000
C    -3.133000000     2.128000000     1.806000000
C    -3.654000000     2.670000000     0.512000000
C    -2.897000000     3.520000000    -0.245000000
H    -1.951000000     3.874000000     0.156000000
C    -4.839000000     2.130000000    -0.026000000
H    -5.485000000     1.466000000     0.542000000
O    -2.542000000     3.137000000     2.615000000
H    -2.346000000     1.484000000     1.387000000
C    -2.638000000    -0.020000000     4.040000000
C    -2.198000000     1.168000000     4.872000000
H    -1.858000000     0.742000000     5.818000000
H    -3.040000000     1.835000000     5.070000000
C    -1.062000000     1.948000000     4.230000000
C     0.239000000     1.625000000     4.645000000
H     0.231000000     0.878000000     5.434000000
C    -1.290000000     2.888000000     3.240000000
C    -0.237000000     3.501000000     2.596000000
H    -0.420000000     4.183000000     1.770000000
C     1.064000000     3.191000000     2.977000000
O     2.091000000     3.720000000     2.207000000
C     2.856000000     2.922000000     1.283000000
C     3.263000000     3.768000000     0.125000000
C     2.359000000     4.719000000    -0.417000000
H     1.362000000     4.796000000     0.010000000
C     4.418000000     3.459000000    -0.522000000
H     4.946000000     2.635000000    -0.051000000
O     4.063000000     2.365000000     1.983000000
H     2.272000000     2.087000000     0.869000000
C     1.282000000     2.271000000     3.987000000
C     2.695000000     1.900000000     4.520000000
H     2.622000000     1.563000000     5.557000000
H     3.386000000     2.740000000     4.621000000
C     3.368000000     0.832000000     3.723000000
C     3.980000000     1.124000000     2.501000000
C     4.339000000     0.127000000     1.608000000
H     4.873000000     0.282000000     0.675000000
C     4.086000000    -1.171000000     1.913000000
O     4.319000000    -1.992000000     0.829000000
C     3.182000000    -2.441000000     0.120000000
H     2.274000000    -1.840000000     0.277000000
C     3.531000000    -2.368000000    -1.371000000
C     2.622000000    -2.935000000    -2.229000000
H     1.817000000    -3.497000000    -1.763000000
C     4.578000000    -1.580000000    -1.935000000
H     5.308000000    -1.080000000    -1.303000000
C     4.659000000    -1.338000000    -3.268000000
O     5.597000000    -0.486000000    -3.828000000
C     3.757000000    -1.916000000    -4.097000000
H     3.877000000    -1.734000000    -5.161000000
C     2.732000000    -2.756000000    -3.611000000
O     1.721000000    -3.083000000    -4.473000000
C     0.976000000    -4.199000000    -4.458000000
C    -0.439000000    -4.114000000    -4.178000000
H    -0.865000000    -3.134000000    -3.979000000
C     1.572000000    -5.447000000    -4.507000000
H     2.640000000    -5.566000000    -4.669000000
C     0.793000000    -6.575000000    -4.340000000
H     1.264000000    -7.555000000    -4.321000000
C    -0.596000000    -6.510000000    -4.293000000
H    -1.154000000    -7.433000000    -4.155000000
C    -1.207000000    -5.282000000    -4.216000000
O    -2.546000000    -5.193000000    -3.919000000
C    -3.133000000    -4.354000000    -3.019000000
C    -4.461000000    -3.830000000    -3.298000000
H    -4.951000000    -3.870000000    -4.268000000
C    -5.112000000    -3.140000000    -2.261000000
O    -6.440000000    -2.750000000    -2.415000000
C    -6.934000000    -1.675000000    -1.711000000
C    -6.431000000    -0.430000000    -2.006000000
H    -5.797000000    -0.282000000    -2.877000000
C    -8.073000000    -1.790000000    -0.832000000
H    -8.542000000    -2.754000000    -0.653000000
C    -8.540000000    -0.668000000    -0.076000000
H    -9.291000000    -0.691000000     0.710000000
C    -7.884000000     0.542000000    -0.320000000
H    -8.171000000     1.442000000     0.217000000
C    -6.940000000     0.679000000    -1.366000000
O    -6.517000000     1.883000000    -1.784000000
C    -5.360000000     2.517000000    -1.290000000
C    -4.620000000     3.424000000    -2.020000000
H    -4.826000000     3.667000000    -3.060000000
C    -3.358000000     3.854000000    -1.501000000
O    -2.610000000     4.734000000    -2.286000000
C    -1.747000000     5.532000000    -1.683000000
C    -0.430000000     5.511000000    -2.185000000
H    -0.124000000     4.833000000    -2.978000000
C    -2.188000000     6.422000000    -0.741000000
H    -3.248000000     6.550000000    -0.533000000
C    -1.137000000     7.286000000    -0.192000000
H    -1.356000000     7.977000000     0.618000000
C     0.162000000     7.166000000    -0.637000000
H     1.042000000     7.639000000    -0.208000000
C     0.564000000     6.376000000    -1.681000000
O     1.924000000     6.324000000    -2.074000000
C     2.748000000     5.423000000    -1.565000000
C     4.013000000     5.202000000    -2.196000000
H     4.274000000     5.740000000    -3.104000000
C     4.842000000     4.192000000    -1.634000000
O     6.103000000     4.010000000    -2.157000000
C     6.581000000     2.688000000    -2.381000000
C     7.895000000     2.391000000    -2.064000000
H     8.441000000     3.187000000    -1.565000000
C     8.483000000     1.083000000    -2.104000000
H     9.538000000     0.974000000    -1.867000000
C     7.666000000     0.067000000    -2.675000000
H     7.989000000    -0.963000000    -2.804000000
C     6.323000000     0.423000000    -3.133000000
C     5.839000000     1.684000000    -3.025000000
H     4.832000000     1.888000000    -3.379000000
C    -2.612000000    -0.184000000    -2.171000000
H    -3.689000000    -0.200000000    -2.321000000
C    -2.008000000     0.054000000    -0.872000000
H    -2.670000000     0.056000000    -0.010000000
C    -0.650000000     0.141000000    -0.700000000
H    -0.186000000     0.231000000     0.281000000
C     0.228000000    -0.140000000    -1.716000000
H     1.279000000    -0.265000000    -1.469000000
C    -0.308000000    -0.483000000    -2.951000000
H     0.384000000    -0.698000000    -3.762000000
C    -1.728000000    -0.422000000    -3.183000000
C    -2.209000000    -0.611000000    -4.596000000
O    -1.380000000    -0.759000000    -5.457000000
O    -3.394000000    -0.506000000    -4.847000000
O     1.203000000    -1.331000000    -6.961000000
H     1.107000000    -2.279000000    -7.052000000
H     0.561000000    -1.088000000    -6.294000000
O    -0.254000000    -4.494000000    -7.705000000
H     0.496000000    -4.917000000    -8.124000000
H    -1.003000000    -5.037000000    -7.952000000
O    -0.552000000     1.879000000    -5.454000000
H    -0.461000000     1.985000000    -4.507000000
H    -0.800000000     0.962000000    -5.569000000
O    -2.313000000     5.218000000    -6.398000000
H    -2.736000000     5.571000000    -5.615000000
H    -3.030000000     5.082000000    -7.017000000
O    -0.721000000    -1.821000000   -10.227000000
H    -0.541000000    -2.218000000   -11.079000000
H    -1.296000000    -2.448000000    -9.787000000
O    -5.749000000    -1.287000000    -5.396000000
H    -6.264000000    -0.541000000    -5.703000000
H    -4.887000000    -0.918000000    -5.200000000
O    -7.882000000     0.281000000    -6.150000000
H    -7.957000000     0.947000000    -6.833000000
H    -8.454000000     0.592000000    -5.448000000
O    -2.157000000    -2.576000000    -7.410000000
H    -2.052000000    -1.830000000    -6.820000000
H    -1.318000000    -3.035000000    -7.368000000
O    -3.716000000     2.393000000    -5.310000000
H    -3.819000000     1.441000000    -5.322000000
H    -2.865000000     2.547000000    -5.720000000
O    -4.522000000    -2.391000000    -9.907000000
H    -4.652000000    -2.599000000    -8.982000000
H    -5.381000000    -2.095000000   -10.209000000
O     1.279000000     3.031000000    -7.468000000
H     0.858000000     3.861000000    -7.689000000
H     0.709000000     2.642000000    -6.804000000
O     3.963000000    -0.663000000    -7.918000000
H     3.054000000    -0.954000000    -7.854000000
H     3.907000000     0.292000000    -7.959000000
O    -5.708000000    -3.051000000    -7.403000000
H    -5.372000000    -3.847000000    -6.992000000
H    -5.781000000    -2.423000000    -6.684000000
O    -3.658000000    -0.291000000    -7.406000000
H    -3.229000000    -0.540000000    -6.587000000
H    -3.667000000    -1.094000000    -7.926000000
O    -0.908000000     2.188000000   -10.773000000
H    -0.164000000     1.610000000   -10.601000000
H    -1.511000000     2.025000000   -10.048000000
O     0.894000000     0.222000000    -9.404000000
H     0.999000000     0.287000000    -8.454000000
H     0.455000000    -0.617000000    -9.539000000
O    -7.980000000    -2.870000000    -4.822000000
H    -7.669000000    -2.576000000    -3.966000000
H    -7.269000000    -2.651000000    -5.424000000
O    -5.826000000     3.997000000    -5.432000000
H    -6.182000000     3.983000000    -6.320000000
H    -5.123000000     3.347000000    -5.445000000
O    -3.432000000     2.091000000    -8.868000000
H    -3.742000000     2.883000000    -8.430000000
H    -3.635000000     1.384000000    -8.256000000
