215
-1458.97075
C    -4.893000000    -2.694000000    -0.516000000
H    -5.330000000    -2.525000000     0.465000000
C    -3.605000000    -3.314000000    -0.670000000
C    -3.104000000    -3.571000000    -1.943000000
H    -2.135000000    -4.048000000    -2.065000000
C    -2.658000000    -3.482000000     0.532000000
O    -3.434000000    -3.410000000     1.795000000
H    -1.977000000    -2.621000000     0.600000000
O    -1.795000000    -4.583000000     0.411000000
C    -0.487000000    -4.367000000     0.810000000
C     0.497000000    -4.344000000    -0.180000000
H     0.258000000    -4.427000000    -1.237000000
C     1.849000000    -4.335000000     0.212000000
O     2.832000000    -4.224000000    -0.755000000
C     2.183000000    -4.081000000     1.559000000
C     3.603000000    -3.697000000     1.991000000
H     3.785000000    -3.793000000     3.064000000
C     3.796000000    -2.259000000     1.867000000
C     3.606000000    -1.409000000     2.957000000
H     3.373000000    -1.819000000     3.937000000
H     4.406000000    -4.001000000     1.317000000
C     1.191000000    -4.142000000     2.538000000
H     1.400000000    -4.036000000     3.600000000
C    -0.142000000    -4.372000000     2.182000000
C    -1.096000000    -4.322000000     3.395000000
H    -0.796000000    -4.733000000     4.360000000
H    -1.758000000    -5.105000000     3.018000000
C    -1.810000000    -2.967000000     3.570000000
C    -1.217000000    -2.028000000     4.423000000
H    -0.448000000    -2.277000000     5.150000000
C    -2.904000000    -2.610000000     2.730000000
C    -3.330000000    -1.335000000     2.727000000
H    -4.112000000    -0.987000000     2.057000000
C    -2.716000000    -0.326000000     3.547000000
O    -3.184000000     0.943000000     3.395000000
C    -2.336000000     1.936000000     2.807000000
C    -3.153000000     2.898000000     1.962000000
C    -2.774000000     4.203000000     1.739000000
H    -1.935000000     4.620000000     2.290000000
C    -4.214000000     2.400000000     1.211000000
H    -4.523000000     1.362000000     1.305000000
O    -1.655000000     2.693000000     3.846000000
H    -1.623000000     1.436000000     2.135000000
C    -1.673000000    -0.665000000     4.384000000
C    -1.077000000     0.264000000     5.408000000
H    -0.676000000    -0.307000000     6.247000000
H    -1.977000000     0.739000000     5.804000000
C    -0.030000000     1.197000000     4.770000000
C     1.301000000     0.810000000     4.899000000
H     1.454000000    -0.070000000     5.519000000
C    -0.334000000     2.341000000     4.057000000
C     0.705000000     3.007000000     3.382000000
H     0.564000000     3.959000000     2.877000000
C     2.003000000     2.530000000     3.394000000
O     2.901000000     3.164000000     2.603000000
C     3.126000000     2.536000000     1.313000000
C     3.101000000     3.411000000     0.063000000
C     2.168000000     4.474000000    -0.031000000
H     1.481000000     4.647000000     0.794000000
C     3.672000000     2.955000000    -1.100000000
H     4.312000000     2.076000000    -1.088000000
O     4.364000000     1.771000000     1.325000000
H     2.317000000     1.802000000     1.185000000
C     2.361000000     1.408000000     4.170000000
C     3.799000000     0.768000000     4.043000000
H     4.239000000     0.234000000     4.888000000
H     4.594000000     1.516000000     4.028000000
C     3.870000000    -0.027000000     2.821000000
C     4.318000000     0.450000000     1.563000000
C     4.538000000    -0.414000000     0.496000000
H     4.928000000    -0.057000000    -0.454000000
C     4.328000000    -1.771000000     0.659000000
O     4.501000000    -2.512000000    -0.526000000
C     3.253000000    -2.889000000    -1.120000000
H     2.478000000    -2.206000000    -0.741000000
C     3.307000000    -2.781000000    -2.621000000
C     2.230000000    -3.176000000    -3.387000000
H     1.385000000    -3.727000000    -2.983000000
C     4.413000000    -2.149000000    -3.288000000
H     5.283000000    -1.796000000    -2.741000000
C     4.390000000    -1.820000000    -4.604000000
O     5.329000000    -1.047000000    -5.137000000
C     3.357000000    -2.346000000    -5.341000000
H     3.380000000    -2.107000000    -6.401000000
C     2.268000000    -2.917000000    -4.747000000
O     1.212000000    -3.181000000    -5.548000000
C     0.091000000    -3.966000000    -5.270000000
C    -1.128000000    -3.409000000    -4.796000000
H    -1.261000000    -2.331000000    -4.739000000
C     0.161000000    -5.295000000    -5.485000000
H     1.121000000    -5.589000000    -5.901000000
C    -0.868000000    -6.142000000    -5.253000000
H    -0.776000000    -7.217000000    -5.389000000
C    -2.074000000    -5.560000000    -4.806000000
H    -2.915000000    -6.223000000    -4.621000000
C    -2.247000000    -4.211000000    -4.650000000
O    -3.460000000    -3.658000000    -4.312000000
C    -3.945000000    -3.374000000    -3.026000000
C    -5.161000000    -2.655000000    -2.876000000
H    -5.767000000    -2.425000000    -3.749000000
C    -5.709000000    -2.431000000    -1.632000000
O    -6.878000000    -1.683000000    -1.555000000
C    -7.032000000    -0.713000000    -0.624000000
C    -6.330000000     0.496000000    -0.779000000
H    -5.653000000     0.606000000    -1.622000000
C    -7.966000000    -0.868000000     0.413000000
H    -8.404000000    -1.853000000     0.547000000
C    -8.232000000     0.297000000     1.264000000
H    -8.831000000     0.285000000     2.171000000
C    -7.524000000     1.474000000     1.081000000
H    -7.715000000     2.337000000     1.713000000
C    -6.610000000     1.577000000     0.028000000
O    -6.041000000     2.781000000    -0.270000000
C    -4.952000000     3.245000000     0.359000000
C    -4.595000000     4.599000000     0.167000000
H    -5.239000000     5.224000000    -0.447000000
C    -3.461000000     5.047000000     0.821000000
O    -3.251000000     6.393000000     0.639000000
C    -1.947000000     6.874000000     0.561000000
C    -1.001000000     6.259000000    -0.321000000
H    -1.439000000     5.494000000    -0.957000000
C    -1.603000000     7.958000000     1.348000000
H    -2.299000000     8.509000000     1.975000000
C    -0.313000000     8.351000000     1.366000000
H    -0.044000000     9.130000000     2.075000000
C     0.619000000     7.831000000     0.439000000
H     1.636000000     8.202000000     0.529000000
C     0.280000000     6.769000000    -0.396000000
O     1.199000000     6.331000000    -1.331000000
C     2.056000000     5.271000000    -1.178000000
C     2.702000000     4.812000000    -2.317000000
H     2.801000000     5.444000000    -3.196000000
C     3.565000000     3.710000000    -2.253000000
O     4.294000000     3.357000000    -3.363000000
C     5.145000000     2.285000000    -3.539000000
C     6.445000000     2.309000000    -3.062000000
H     6.795000000     3.186000000    -2.525000000
C     7.397000000     1.338000000    -3.347000000
H     8.400000000     1.334000000    -2.929000000
C     6.992000000     0.221000000    -4.063000000
H     7.666000000    -0.616000000    -4.225000000
C     5.661000000     0.137000000    -4.575000000
C     4.761000000     1.205000000    -4.312000000
H     3.756000000     1.178000000    -4.725000000
C    -0.970000000    -0.158000000    -2.669000000
H    -1.818000000    -0.311000000    -3.331000000
C    -0.969000000    -0.410000000    -1.321000000
H    -1.884000000    -0.797000000    -0.879000000
C     0.177000000    -0.260000000    -0.505000000
H     0.135000000    -0.425000000     0.570000000
C     1.320000000     0.136000000    -1.060000000
H     2.221000000     0.386000000    -0.506000000
C     1.369000000     0.384000000    -2.430000000
H     2.258000000     0.823000000    -2.875000000
C     0.209000000     0.345000000    -3.226000000
C     0.226000000     0.745000000    -4.710000000
O     1.272000000     1.233000000    -5.130000000
O    -0.798000000     0.682000000    -5.354000000
O     3.222000000     2.751000000    -8.760000000
H     3.076000000     1.994000000    -8.193000000
H     2.359000000     3.157000000    -8.845000000
O    -2.818000000     3.424000000    -2.185000000
H    -3.153000000     3.587000000    -1.303000000
H    -3.458000000     2.832000000    -2.579000000
O     5.524000000    -1.183000000    -7.886000000
H     5.396000000    -1.428000000    -6.969000000
H     4.638000000    -1.117000000    -8.242000000
O    -0.831000000     4.834000000    -3.961000000
H    -0.137000000     4.250000000    -4.266000000
H    -1.339000000     4.302000000    -3.348000000
O    -3.401000000     0.554000000    -4.949000000
H    -3.710000000    -0.040000000    -5.634000000
H    -2.459000000     0.627000000    -5.102000000
O    -1.725000000     2.629000000    -6.972000000
H    -1.286000000     1.989000000    -6.412000000
H    -2.629000000     2.318000000    -7.027000000
O    -4.423000000    -1.653000000    -6.320000000
H    -3.942000000    -1.934000000    -7.098000000
H    -4.250000000    -2.335000000    -5.671000000
O    -0.567000000    -0.503000000    -7.643000000
H    -0.475000000    -0.031000000    -6.815000000
H    -1.243000000    -1.159000000    -7.470000000
O    -4.928000000     2.157000000    -3.501000000
H    -5.223000000     2.808000000    -4.139000000
H    -4.524000000     1.470000000    -4.030000000
O     0.718000000     3.677000000    -7.817000000
H     1.069000000     3.713000000    -6.927000000
H    -0.231000000     3.726000000    -7.702000000
O     1.760000000     6.822000000    -5.346000000
H     1.139000000     7.244000000    -5.940000000
H     1.659000000     5.886000000    -5.520000000
O     1.564000000     3.848000000    -5.015000000
H     2.349000000     3.779000000    -4.471000000
H     1.260000000     2.945000000    -5.112000000
O    -2.469000000    -2.880000000    -8.066000000
H    -2.081000000    -2.948000000    -8.938000000
H    -2.387000000    -3.760000000    -7.698000000
O    -3.390000000     4.876000000    -6.125000000
H    -2.490000000     4.622000000    -6.328000000
H    -3.353000000     5.826000000    -6.018000000
O    -1.921000000     1.151000000    -9.844000000
H    -1.817000000     1.411000000    -8.929000000
H    -2.868000000     1.104000000    -9.974000000
O     1.847000000     0.459000000    -7.635000000
H     0.982000000     0.121000000    -7.867000000
H     1.727000000     0.848000000    -6.769000000
O    -1.222000000     7.501000000    -4.028000000
H    -2.093000000     7.581000000    -3.638000000
H    -1.065000000     6.558000000    -4.072000000
O    -4.237000000     1.917000000    -7.696000000
H    -4.798000000     2.527000000    -8.174000000
H    -4.664000000     1.066000000    -7.803000000
O     1.588000000    -2.666000000    -8.470000000
H     1.262000000    -2.187000000    -7.708000000
H     2.274000000    -2.104000000    -8.830000000
