215
-1453.15415
C    -4.260000000    -1.934000000    -2.183000000
H    -4.246000000    -1.360000000    -3.106000000
C    -4.306000000    -1.255000000    -0.963000000
C    -4.436000000    -2.016000000     0.197000000
H    -4.449000000    -1.552000000     1.179000000
C    -4.029000000     0.216000000    -0.798000000
O    -4.266000000     0.829000000    -2.076000000
H    -2.942000000     0.233000000    -0.629000000
O    -4.790000000     0.814000000     0.232000000
C    -4.090000000     1.706000000     1.024000000
C    -3.817000000     1.453000000     2.392000000
H    -4.212000000     0.547000000     2.845000000
C    -3.053000000     2.296000000     3.102000000
O    -2.480000000     1.853000000     4.315000000
C    -2.404000000     3.438000000     2.473000000
C    -1.478000000     4.289000000     3.270000000
H    -1.547000000     5.318000000     2.912000000
C     0.021000000     3.882000000     3.117000000
C     0.681000000     4.434000000     1.986000000
H     0.156000000     5.289000000     1.567000000
H    -1.782000000     4.482000000     4.301000000
C    -2.838000000     3.782000000     1.188000000
H    -2.538000000     4.659000000     0.620000000
C    -3.697000000     2.980000000     0.469000000
C    -4.193000000     3.371000000    -0.895000000
H    -4.239000000     4.462000000    -0.915000000
H    -5.198000000     3.002000000    -1.111000000
C    -3.227000000     2.970000000    -2.015000000
C    -2.145000000     3.764000000    -2.305000000
H    -2.094000000     4.769000000    -1.894000000
C    -3.333000000     1.703000000    -2.603000000
C    -2.335000000     1.250000000    -3.445000000
H    -2.466000000     0.266000000    -3.889000000
C    -1.268000000     2.058000000    -3.806000000
O    -0.357000000     1.522000000    -4.633000000
C     0.752000000     0.951000000    -3.988000000
C     1.271000000    -0.364000000    -4.570000000
C     2.614000000    -0.601000000    -4.772000000
H     3.443000000     0.071000000    -4.565000000
C     0.400000000    -1.419000000    -4.882000000
H    -0.659000000    -1.211000000    -4.755000000
O     1.824000000     1.988000000    -4.109000000
H     0.562000000     0.816000000    -2.913000000
C    -1.138000000     3.310000000    -3.244000000
C     0.023000000     4.238000000    -3.470000000
H    -0.344000000     5.196000000    -3.096000000
H     0.417000000     4.323000000    -4.485000000
C     1.235000000     3.825000000    -2.674000000
C     1.423000000     4.476000000    -1.474000000
H     0.814000000     5.318000000    -1.157000000
C     2.100000000     2.867000000    -3.096000000
C     3.193000000     2.490000000    -2.298000000
H     3.908000000     1.750000000    -2.647000000
C     3.434000000     3.141000000    -1.099000000
O     4.337000000     2.562000000    -0.195000000
C     3.815000000     1.703000000     0.743000000
C     4.695000000     0.440000000     0.948000000
C     5.512000000     0.012000000    -0.129000000
H     5.752000000     0.652000000    -0.975000000
C     4.489000000    -0.365000000     2.048000000
H     3.869000000    -0.039000000     2.879000000
O     3.708000000     2.370000000     2.018000000
H     2.794000000     1.397000000     0.468000000
C     2.541000000     4.142000000    -0.695000000
C     2.731000000     4.794000000     0.610000000
H     2.318000000     5.796000000     0.478000000
H     3.802000000     4.840000000     0.820000000
C     1.937000000     3.996000000     1.625000000
C     2.504000000     2.920000000     2.331000000
C     1.875000000     2.403000000     3.461000000
H     2.269000000     1.530000000     3.976000000
C     0.602000000     2.800000000     3.806000000
O    -0.054000000     1.988000000     4.683000000
C    -1.192000000     1.219000000     4.170000000
H    -0.948000000     1.096000000     3.105000000
C    -1.282000000    -0.158000000     4.799000000
C    -2.490000000    -0.778000000     4.966000000
H    -3.438000000    -0.356000000     4.641000000
C    -0.085000000    -0.837000000     4.996000000
H     0.822000000    -0.260000000     4.840000000
C    -0.106000000    -2.074000000     5.577000000
O     0.969000000    -2.725000000     6.144000000
C    -1.312000000    -2.677000000     5.896000000
H    -1.371000000    -3.591000000     6.481000000
C    -2.553000000    -2.042000000     5.557000000
O    -3.707000000    -2.695000000     5.849000000
C    -4.590000000    -3.052000000     4.872000000
C    -4.207000000    -3.324000000     3.609000000
H    -3.205000000    -3.588000000     3.281000000
C    -5.953000000    -2.983000000     5.148000000
H    -6.403000000    -2.735000000     6.107000000
C    -6.880000000    -3.328000000     4.207000000
H    -7.933000000    -3.329000000     4.474000000
C    -6.550000000    -3.571000000     2.884000000
H    -7.235000000    -3.655000000     2.044000000
C    -5.171000000    -3.584000000     2.584000000
O    -4.774000000    -4.076000000     1.344000000
C    -4.672000000    -3.383000000     0.150000000
C    -4.669000000    -4.075000000    -1.078000000
H    -4.674000000    -5.161000000    -1.054000000
C    -4.430000000    -3.318000000    -2.236000000
O    -4.386000000    -3.983000000    -3.468000000
C    -3.552000000    -3.592000000    -4.562000000
C    -2.197000000    -3.943000000    -4.555000000
H    -1.704000000    -4.469000000    -3.742000000
C    -4.162000000    -2.934000000    -5.638000000
H    -5.203000000    -2.622000000    -5.643000000
C    -3.399000000    -2.653000000    -6.766000000
H    -3.962000000    -2.198000000    -7.577000000
C    -2.054000000    -2.911000000    -6.707000000
H    -1.456000000    -2.593000000    -7.557000000
C    -1.417000000    -3.565000000    -5.618000000
O    -0.060000000    -3.666000000    -5.630000000
C     0.826000000    -2.638000000    -5.269000000
C     2.161000000    -2.923000000    -5.253000000
H     2.556000000    -3.856000000    -5.645000000
C     3.038000000    -1.878000000    -5.121000000
O     4.367000000    -2.160000000    -5.315000000
C     5.328000000    -1.570000000    -4.529000000
C     5.586000000    -2.146000000    -3.289000000
H     5.145000000    -3.095000000    -2.995000000
C     6.028000000    -0.502000000    -4.994000000
H     5.657000000    -0.204000000    -5.971000000
C     7.057000000     0.025000000    -4.205000000
H     7.659000000     0.825000000    -4.629000000
C     7.200000000    -0.410000000    -2.881000000
H     7.980000000     0.021000000    -2.259000000
C     6.515000000    -1.487000000    -2.431000000
O     6.713000000    -1.887000000    -1.159000000
C     6.044000000    -1.267000000    -0.109000000
C     5.854000000    -2.035000000     1.031000000
H     6.286000000    -3.033000000     1.038000000
C     5.092000000    -1.600000000     2.079000000
O     4.787000000    -2.459000000     3.110000000
C     4.157000000    -2.074000000     4.348000000
C     4.804000000    -1.256000000     5.283000000
H     5.738000000    -0.722000000     5.131000000
C     4.175000000    -0.895000000     6.454000000
H     4.703000000    -0.175000000     7.074000000
C     2.887000000    -1.452000000     6.814000000
H     2.301000000    -1.224000000     7.700000000
C     2.275000000    -2.352000000     5.907000000
C     2.948000000    -2.714000000     4.700000000
H     2.550000000    -3.356000000     3.919000000
C     0.256000000    -2.910000000    -1.325000000
H     0.839000000    -3.317000000    -2.147000000
C     0.184000000    -1.543000000    -1.122000000
H     0.775000000    -0.898000000    -1.767000000
C    -0.374000000    -1.006000000     0.027000000
H    -0.429000000     0.050000000     0.236000000
C    -0.944000000    -1.923000000     0.989000000
H    -1.378000000    -1.461000000     1.872000000
C    -1.098000000    -3.295000000     0.670000000
H    -1.689000000    -3.921000000     1.332000000
C    -0.383000000    -3.803000000    -0.505000000
C    -0.285000000    -5.201000000    -0.775000000
O    -0.831000000    -5.992000000    -0.085000000
O     0.602000000    -5.568000000    -1.585000000
O     5.356000000    -5.780000000     1.162000000
H     5.590000000    -5.296000000     0.370000000
H     5.086000000    -6.642000000     0.845000000
O    -3.567000000    -9.086000000    -0.421000000
H    -3.100000000    -9.699000000    -0.989000000
H    -2.881000000    -8.678000000     0.106000000
O    -2.920000000    -7.277000000    -2.520000000
H    -3.229000000    -7.905000000    -1.867000000
H    -2.525000000    -6.573000000    -2.006000000
O    -4.921000000    -6.654000000    -4.280000000
H    -4.970000000    -5.720000000    -4.074000000
H    -4.321000000    -7.012000000    -3.625000000
O    -3.732000000    -7.899000000     3.809000000
H    -2.902000000    -7.662000000     3.396000000
H    -4.327000000    -8.058000000     3.076000000
O     1.339000000    -7.877000000    -0.192000000
H     1.021000000    -6.990000000    -0.361000000
H     0.760000000    -8.441000000    -0.705000000
O     3.459000000    -9.074000000     2.890000000
H     3.305000000    -8.129000000     2.877000000
H     2.991000000    -9.403000000     2.122000000
O    -0.230000000    -8.036000000    -2.549000000
H    -0.995000000    -7.668000000    -2.991000000
H     0.119000000    -7.310000000    -2.031000000
O     3.810000000    -8.037000000    -3.290000000
H     4.190000000    -7.174000000    -3.453000000
H     4.520000000    -8.539000000    -2.889000000
O    -1.804000000    -7.913000000     1.405000000
H    -1.079000000    -8.314000000     1.884000000
H    -1.413000000    -7.158000000     0.965000000
O     1.584000000    -9.630000000    -3.859000000
H     2.429000000    -9.184000000    -3.923000000
H     1.051000000    -9.055000000    -3.309000000
O     3.990000000    -7.804000000    -0.079000000
H     4.216000000    -8.694000000    -0.351000000
H     3.037000000    -7.766000000    -0.152000000
O     3.107000000    -4.513000000    -1.429000000
H     3.691000000    -5.267000000    -1.358000000
H     2.284000000    -4.877000000    -1.756000000
O    -1.150000000    -6.264000000     5.191000000
H    -0.737000000    -5.825000000     4.447000000
H    -1.349000000    -7.143000000     4.870000000
O     2.183000000    -3.984000000     1.342000000
H     2.562000000    -4.114000000     0.472000000
H     1.636000000    -3.204000000     1.250000000
O    -0.513000000    -8.842000000     3.817000000
H     0.020000000    -9.395000000     3.245000000
H    -0.138000000    -8.967000000     4.689000000
O    -1.834000000   -10.360000000    -2.401000000
H    -1.016000000    -9.874000000    -2.295000000
H    -1.595000000   -11.271000000    -2.231000000
O     0.721000000    -5.632000000     3.263000000
H     1.672000000    -5.653000000     3.370000000
H     0.589000000    -5.408000000     2.341000000
O     3.642000000    -6.118000000     3.550000000
H     4.468000000    -6.588000000     3.667000000
H     3.777000000    -5.590000000     2.763000000
