215
-1460.52729
C    -4.100000000    -3.028000000    -0.689000000
H    -4.387000000    -2.538000000     0.238000000
C    -3.054000000    -3.911000000    -0.826000000
C    -2.775000000    -4.462000000    -2.052000000
H    -1.901000000    -5.105000000    -2.128000000
C    -2.033000000    -3.913000000     0.316000000
O    -2.683000000    -3.895000000     1.630000000
H    -1.449000000    -3.003000000     0.114000000
O    -1.086000000    -4.956000000     0.215000000
C     0.243000000    -4.689000000     0.501000000
C     1.078000000    -4.323000000    -0.535000000
H     0.693000000    -4.450000000    -1.544000000
C     2.351000000    -3.902000000    -0.228000000
O     3.084000000    -3.508000000    -1.340000000
C     2.854000000    -3.887000000     1.053000000
C     4.234000000    -3.354000000     1.317000000
H     4.566000000    -3.663000000     2.311000000
C     4.275000000    -1.861000000     1.342000000
C     4.128000000    -1.104000000     2.527000000
H     4.065000000    -1.691000000     3.440000000
H     4.912000000    -3.805000000     0.589000000
C     2.001000000    -4.181000000     2.096000000
H     2.431000000    -4.216000000     3.094000000
C     0.688000000    -4.495000000     1.823000000
C    -0.295000000    -4.691000000     3.002000000
H     0.214000000    -4.947000000     3.933000000
H    -1.048000000    -5.468000000     2.848000000
C    -1.105000000    -3.479000000     3.388000000
C    -0.541000000    -2.586000000     4.338000000
H     0.417000000    -2.814000000     4.799000000
C    -2.274000000    -3.136000000     2.718000000
C    -2.946000000    -2.000000000     3.047000000
H    -3.932000000    -1.779000000     2.646000000
C    -2.327000000    -1.099000000     3.971000000
O    -2.960000000     0.161000000     4.073000000
C    -2.393000000     1.270000000     3.285000000
C    -3.416000000     2.037000000     2.444000000
C    -3.046000000     3.238000000     1.851000000
H    -2.003000000     3.532000000     1.934000000
C    -4.680000000     1.566000000     2.206000000
H    -5.130000000     0.745000000     2.758000000
O    -1.625000000     2.162000000     4.162000000
H    -1.738000000     0.777000000     2.551000000
C    -1.120000000    -1.382000000     4.632000000
C    -0.537000000    -0.345000000     5.549000000
H     0.071000000    -0.914000000     6.257000000
H    -1.368000000     0.099000000     6.099000000
C     0.255000000     0.690000000     4.757000000
C     1.637000000     0.538000000     4.644000000
H     2.121000000    -0.369000000     4.997000000
C    -0.269000000     1.945000000     4.295000000
C     0.604000000     2.874000000     3.656000000
H     0.223000000     3.836000000     3.323000000
C     1.926000000     2.521000000     3.403000000
O     2.732000000     3.382000000     2.619000000
C     2.978000000     2.961000000     1.252000000
C     2.911000000     4.091000000     0.308000000
C     1.922000000     5.050000000     0.489000000
H     1.204000000     4.849000000     1.280000000
C     3.595000000     4.043000000    -0.887000000
H     4.326000000     3.274000000    -1.126000000
O     4.297000000     2.383000000     1.184000000
H     2.291000000     2.198000000     0.858000000
C     2.413000000     1.375000000     4.015000000
C     3.873000000     1.021000000     3.827000000
H     4.058000000     0.302000000     4.628000000
H     4.478000000     1.923000000     3.936000000
C     4.139000000     0.280000000     2.491000000
C     4.389000000     0.989000000     1.329000000
C     4.570000000     0.264000000     0.165000000
H     4.764000000     0.795000000    -0.764000000
C     4.478000000    -1.125000000     0.143000000
O     4.489000000    -1.725000000    -1.046000000
C     3.146000000    -2.082000000    -1.555000000
H     2.305000000    -1.757000000    -0.926000000
C     2.959000000    -1.719000000    -3.022000000
C     1.887000000    -2.361000000    -3.716000000
H     1.305000000    -3.137000000    -3.226000000
C     3.622000000    -0.654000000    -3.584000000
H     4.368000000    -0.145000000    -2.979000000
C     3.290000000    -0.151000000    -4.891000000
O     3.748000000     1.017000000    -5.434000000
C     2.312000000    -0.798000000    -5.555000000
H     1.950000000    -0.327000000    -6.466000000
C     1.587000000    -1.934000000    -5.013000000
O     0.638000000    -2.481000000    -5.831000000
C     0.036000000    -3.688000000    -5.629000000
C    -1.312000000    -3.619000000    -5.129000000
H    -1.890000000    -2.700000000    -5.063000000
C     0.715000000    -4.915000000    -5.708000000
H     1.752000000    -5.086000000    -5.989000000
C    -0.062000000    -6.071000000    -5.527000000
H     0.290000000    -7.027000000    -5.906000000
C    -1.410000000    -6.000000000    -5.064000000
H    -1.948000000    -6.936000000    -4.932000000
C    -1.984000000    -4.761000000    -4.836000000
O    -3.249000000    -4.793000000    -4.371000000
C    -3.559000000    -4.268000000    -3.158000000
C    -4.728000000    -3.460000000    -3.012000000
H    -5.342000000    -3.208000000    -3.872000000
C    -4.910000000    -2.782000000    -1.795000000
O    -5.895000000    -1.806000000    -1.828000000
C    -6.567000000    -1.274000000    -0.704000000
C    -6.504000000     0.078000000    -0.374000000
H    -5.897000000     0.703000000    -1.024000000
C    -7.412000000    -2.094000000     0.113000000
H    -7.639000000    -3.106000000    -0.212000000
C    -8.178000000    -1.559000000     1.162000000
H    -8.955000000    -2.160000000     1.627000000
C    -7.909000000    -0.225000000     1.618000000
H    -8.226000000     0.184000000     2.574000000
C    -7.056000000     0.532000000     0.833000000
O    -6.907000000     1.891000000     1.259000000
C    -5.605000000     2.316000000     1.480000000
C    -5.146000000     3.552000000     0.826000000
H    -5.814000000     4.150000000     0.211000000
C    -3.906000000     4.018000000     1.071000000
O    -3.391000000     5.103000000     0.315000000
C    -2.412000000     5.950000000     0.764000000
C    -1.294000000     6.220000000    -0.062000000
H    -1.153000000     5.805000000    -1.056000000
C    -2.426000000     6.501000000     2.109000000
H    -3.231000000     6.341000000     2.821000000
C    -1.363000000     7.354000000     2.494000000
H    -1.450000000     7.727000000     3.511000000
C    -0.338000000     7.616000000     1.659000000
H     0.462000000     8.254000000     2.027000000
C    -0.269000000     7.016000000     0.422000000
O     0.917000000     7.157000000    -0.236000000
C     1.792000000     6.164000000    -0.433000000
C     2.555000000     6.103000000    -1.592000000
H     2.411000000     6.917000000    -2.297000000
C     3.453000000     5.057000000    -1.870000000
O     4.053000000     5.140000000    -3.061000000
C     4.613000000     4.012000000    -3.630000000
C     6.021000000     3.833000000    -3.358000000
H     6.450000000     4.609000000    -2.728000000
C     6.680000000     2.743000000    -4.018000000
H     7.761000000     2.631000000    -4.058000000
C     5.930000000     1.818000000    -4.736000000
H     6.414000000     1.050000000    -5.335000000
C     4.545000000     1.925000000    -4.795000000
C     3.881000000     3.093000000    -4.349000000
H     2.801000000     3.135000000    -4.470000000
C    -1.591000000     0.305000000    -1.753000000
H    -2.604000000     0.222000000    -2.139000000
C    -1.183000000    -0.291000000    -0.579000000
H    -1.888000000    -0.806000000     0.068000000
C     0.122000000    -0.084000000    -0.112000000
H     0.493000000    -0.514000000     0.809000000
C     1.031000000     0.771000000    -0.843000000
H     2.041000000     0.854000000    -0.451000000
C     0.600000000     1.300000000    -2.055000000
H     1.358000000     1.841000000    -2.615000000
C    -0.728000000     1.142000000    -2.485000000
C    -1.223000000     1.902000000    -3.651000000
O    -0.497000000     2.677000000    -4.263000000
O    -2.122000000     1.469000000    -4.311000000
O     2.313000000     1.212000000    -8.714000000
H     2.008000000     1.441000000    -7.836000000
H     1.985000000     0.324000000    -8.858000000
O     0.918000000     4.472000000    -5.724000000
H     0.790000000     4.032000000    -6.565000000
H     0.442000000     3.930000000    -5.095000000
O    -1.415000000     3.714000000    -8.790000000
H    -0.916000000     3.156000000    -8.194000000
H    -2.043000000     4.165000000    -8.226000000
O    -6.106000000     6.173000000    -4.586000000
H    -6.107000000     7.110000000    -4.782000000
H    -5.356000000     6.050000000    -4.005000000
O    -3.891000000     7.525000000    -2.901000000
H    -3.999000000     6.577000000    -2.826000000
H    -3.075000000     7.636000000    -3.389000000
O     0.038000000     2.120000000    -6.974000000
H     0.032000000     2.231000000    -6.023000000
H    -0.351000000     1.257000000    -7.116000000
O    -4.038000000     4.903000000    -2.577000000
H    -3.932000000     4.805000000    -1.631000000
H    -4.659000000     4.216000000    -2.821000000
O    -5.094000000     1.613000000    -4.612000000
H    -4.143000000     1.547000000    -4.692000000
H    -5.412000000     1.598000000    -5.515000000
O    -2.844000000    -0.660000000    -5.838000000
H    -3.481000000    -0.264000000    -6.433000000
H    -2.527000000     0.070000000    -5.307000000
O    -4.063000000     0.878000000    -7.588000000
H    -4.969000000     1.181000000    -7.530000000
H    -3.699000000     1.353000000    -8.335000000
O    -1.990000000     7.859000000    -4.939000000
H    -1.141000000     8.297000000    -5.002000000
H    -1.777000000     6.957000000    -4.698000000
O    -6.383000000    -1.074000000    -5.104000000
H    -7.085000000    -0.826000000    -4.503000000
H    -5.585000000    -0.748000000    -4.688000000
O    -0.721000000    -0.543000000    -7.552000000
H    -1.394000000    -0.646000000    -6.880000000
H    -0.158000000    -1.310000000    -7.447000000
O     0.852000000     7.136000000    -4.549000000
H     0.768000000     6.300000000    -5.008000000
H     1.792000000     7.233000000    -4.397000000
O    -4.805000000     4.933000000    -8.213000000
H    -4.387000000     4.562000000    -7.436000000
H    -5.716000000     5.070000000    -7.954000000
O    -3.194000000     3.683000000    -6.190000000
H    -2.793000000     4.425000000    -5.739000000
H    -2.728000000     2.918000000    -5.853000000
O    -6.369000000     3.143000000    -2.733000000
H    -5.852000000     2.749000000    -3.437000000
H    -7.135000000     2.575000000    -2.653000000
O    -1.922000000     5.179000000    -4.271000000
H    -2.557000000     5.241000000    -3.558000000
H    -1.442000000     4.370000000    -4.095000000
O     3.777000000     3.740000000    -7.332000000
H     3.377000000     2.970000000    -6.928000000
H     4.297000000     3.389000000    -8.055000000
