215
-1440.69674
C    -3.920000000    -3.701000000    -0.617000000
H    -4.217000000    -3.111000000     0.246000000
C    -2.709000000    -4.410000000    -0.566000000
C    -2.294000000    -5.104000000    -1.706000000
H    -1.266000000    -5.455000000    -1.661000000
C    -1.798000000    -4.211000000     0.618000000
O    -2.505000000    -4.059000000     1.831000000
H    -1.215000000    -3.302000000     0.410000000
O    -0.731000000    -5.267000000     0.732000000
C     0.541000000    -4.810000000     0.891000000
C     1.347000000    -4.494000000    -0.156000000
H     0.939000000    -4.492000000    -1.164000000
C     2.525000000    -3.809000000    -0.014000000
O     3.130000000    -3.399000000    -1.187000000
C     3.067000000    -3.545000000     1.252000000
C     4.368000000    -2.918000000     1.542000000
H     4.746000000    -3.329000000     2.481000000
C     4.220000000    -1.389000000     1.508000000
C     4.180000000    -0.617000000     2.665000000
H     4.125000000    -1.179000000     3.594000000
H     5.173000000    -3.192000000     0.857000000
C     2.251000000    -3.965000000     2.328000000
H     2.578000000    -3.767000000     3.346000000
C     0.989000000    -4.587000000     2.166000000
C     0.066000000    -4.692000000     3.365000000
H     0.634000000    -4.902000000     4.274000000
H    -0.580000000    -5.571000000     3.313000000
C    -0.815000000    -3.460000000     3.551000000
C    -0.367000000    -2.404000000     4.403000000
H     0.561000000    -2.481000000     4.963000000
C    -1.913000000    -3.180000000     2.719000000
C    -2.587000000    -1.970000000     2.815000000
H    -3.468000000    -1.828000000     2.195000000
C    -2.165000000    -1.029000000     3.708000000
O    -2.956000000     0.105000000     3.789000000
C    -2.446000000     1.389000000     3.220000000
C    -3.506000000     2.138000000     2.339000000
C    -3.646000000     3.522000000     2.528000000
H    -3.270000000     3.902000000     3.475000000
C    -4.093000000     1.522000000     1.210000000
H    -3.876000000     0.469000000     1.053000000
O    -1.862000000     2.254000000     4.211000000
H    -1.660000000     1.094000000     2.510000000
C    -1.075000000    -1.247000000     4.525000000
C    -0.716000000    -0.166000000     5.531000000
H    -0.077000000    -0.581000000     6.314000000
H    -1.611000000     0.295000000     5.953000000
C     0.052000000     0.932000000     4.860000000
C     1.440000000     0.810000000     4.794000000
H     1.849000000    -0.094000000     5.238000000
C    -0.529000000     2.044000000     4.261000000
C     0.207000000     2.959000000     3.534000000
H    -0.268000000     3.753000000     2.963000000
C     1.541000000     2.765000000     3.385000000
O     2.312000000     3.664000000     2.616000000
C     2.453000000     3.250000000     1.215000000
C     2.284000000     4.351000000     0.225000000
C     1.235000000     5.302000000     0.409000000
H     0.702000000     5.169000000     1.347000000
C     3.065000000     4.482000000    -0.985000000
H     3.990000000     3.913000000    -1.032000000
O     3.774000000     2.665000000     1.133000000
H     1.726000000     2.450000000     1.009000000
C     2.173000000     1.702000000     4.012000000
C     3.641000000     1.523000000     3.837000000
H     3.990000000     0.893000000     4.658000000
H     4.105000000     2.510000000     3.898000000
C     3.947000000     0.708000000     2.555000000
C     4.043000000     1.342000000     1.326000000
C     4.207000000     0.566000000     0.180000000
H     4.193000000     0.965000000    -0.831000000
C     4.205000000    -0.795000000     0.268000000
O     4.176000000    -1.477000000    -0.885000000
C     2.970000000    -2.014000000    -1.393000000
H     2.092000000    -1.608000000    -0.870000000
C     2.854000000    -1.796000000    -2.935000000
C     2.284000000    -2.754000000    -3.794000000
H     2.055000000    -3.700000000    -3.309000000
C     3.232000000    -0.647000000    -3.480000000
H     3.701000000     0.097000000    -2.841000000
C     3.082000000    -0.389000000    -4.845000000
O     3.498000000     0.873000000    -5.354000000
C     2.332000000    -1.240000000    -5.691000000
H     2.019000000    -1.059000000    -6.716000000
C     1.968000000    -2.474000000    -5.101000000
O     1.239000000    -3.365000000    -5.898000000
C     0.663000000    -4.571000000    -5.552000000
C    -0.530000000    -4.592000000    -4.762000000
H    -0.962000000    -3.610000000    -4.589000000
C     1.196000000    -5.726000000    -6.031000000
H     2.023000000    -5.565000000    -6.719000000
C     0.662000000    -6.947000000    -5.694000000
H     1.092000000    -7.885000000    -6.036000000
C    -0.570000000    -6.970000000    -4.957000000
H    -1.031000000    -7.889000000    -4.603000000
C    -1.169000000    -5.796000000    -4.525000000
O    -2.485000000    -5.881000000    -3.963000000
C    -3.037000000    -5.185000000    -2.886000000
C    -4.214000000    -4.507000000    -2.924000000
H    -4.729000000    -4.461000000    -3.881000000
C    -4.607000000    -3.712000000    -1.827000000
O    -5.655000000    -2.886000000    -2.073000000
C    -6.016000000    -1.844000000    -1.245000000
C    -5.594000000    -0.529000000    -1.516000000
H    -4.922000000    -0.383000000    -2.357000000
C    -7.046000000    -2.037000000    -0.322000000
H    -7.454000000    -3.037000000    -0.202000000
C    -7.596000000    -1.021000000     0.405000000
H    -8.305000000    -1.287000000     1.185000000
C    -7.129000000     0.248000000     0.208000000
H    -7.558000000     1.059000000     0.789000000
C    -6.094000000     0.541000000    -0.714000000
O    -5.584000000     1.818000000    -0.788000000
C    -4.854000000     2.323000000     0.223000000
C    -4.863000000     3.696000000     0.425000000
H    -5.481000000     4.313000000    -0.223000000
C    -4.219000000     4.294000000     1.552000000
O    -4.131000000     5.690000000     1.727000000
C    -2.932000000     6.335000000     1.907000000
C    -1.936000000     6.157000000     0.982000000
H    -1.978000000     5.413000000     0.191000000
C    -2.889000000     7.432000000     2.731000000
H    -3.609000000     7.577000000     3.533000000
C    -1.818000000     8.282000000     2.714000000
H    -1.876000000     9.191000000     3.306000000
C    -0.857000000     8.128000000     1.687000000
H    -0.072000000     8.878000000     1.639000000
C    -0.929000000     7.093000000     0.799000000
O    -0.085000000     7.083000000    -0.327000000
C     0.912000000     6.188000000    -0.520000000
C     1.676000000     6.223000000    -1.652000000
H     1.343000000     6.941000000    -2.397000000
C     2.716000000     5.390000000    -1.955000000
O     3.296000000     5.245000000    -3.221000000
C     3.951000000     4.017000000    -3.528000000
C     5.340000000     3.968000000    -3.404000000
H     5.964000000     4.793000000    -3.069000000
C     6.023000000     2.949000000    -3.941000000
H     7.105000000     3.047000000    -3.992000000
C     5.431000000     1.859000000    -4.511000000
H     5.906000000     0.991000000    -4.961000000
C     4.068000000     1.889000000    -4.653000000
C     3.287000000     2.948000000    -4.167000000
H     2.223000000     3.022000000    -4.377000000
C    -1.774000000    -0.532000000    -1.748000000
H    -2.663000000    -1.111000000    -1.982000000
C    -1.151000000    -0.593000000    -0.505000000
H    -1.558000000    -1.243000000     0.266000000
C     0.012000000     0.018000000    -0.209000000
H     0.400000000    -0.057000000     0.790000000
C     0.716000000     0.687000000    -1.167000000
H     1.613000000     1.208000000    -0.842000000
C     0.147000000     0.817000000    -2.431000000
H     0.752000000     1.262000000    -3.216000000
C    -1.075000000     0.204000000    -2.685000000
C    -1.659000000     0.267000000    -4.052000000
O    -1.068000000     0.863000000    -4.883000000
O    -2.615000000    -0.410000000    -4.418000000
O    -8.026000000     2.244000000    -2.514000000
H    -8.139000000     2.526000000    -1.607000000
H    -7.085000000     2.318000000    -2.673000000
O     0.138000000     4.542000000    -5.890000000
H    -0.073000000     3.671000000    -6.227000000
H     0.005000000     5.126000000    -6.636000000
O    -3.000000000     6.760000000    -2.317000000
H    -3.204000000     5.826000000    -2.288000000
H    -2.107000000     6.821000000    -1.976000000
O     0.729000000     1.890000000    -6.554000000
H     0.258000000     1.288000000    -5.979000000
H     1.624000000     1.551000000    -6.576000000
O    -3.677000000     4.211000000    -2.602000000
H    -3.050000000     3.756000000    -3.165000000
H    -4.528000000     3.851000000    -2.851000000
O    -5.177000000    -0.035000000    -5.248000000
H    -4.327000000    -0.285000000    -4.886000000
H    -5.076000000    -0.145000000    -6.193000000
O    -5.248000000     4.678000000    -7.598000000
H    -4.998000000     4.803000000    -6.683000000
H    -5.027000000     5.506000000    -8.023000000
O    -3.312000000    -2.746000000    -5.261000000
H    -3.634000000    -3.187000000    -4.475000000
H    -3.117000000    -1.854000000    -4.973000000
O    -1.546000000    -0.917000000   -10.002000000
H    -1.506000000    -1.874000000   -10.007000000
H    -1.950000000    -0.699000000    -9.162000000
O     0.507000000    -1.789000000    -8.593000000
H     0.012000000    -1.798000000    -7.773000000
H    -0.099000000    -1.417000000    -9.234000000
O    -7.756000000    -0.005000000    -4.133000000
H    -6.904000000     0.026000000    -4.567000000
H    -7.772000000     0.777000000    -3.580000000
O    -1.784000000    -1.089000000    -7.095000000
H    -1.476000000    -0.516000000    -6.393000000
H    -2.400000000    -1.683000000    -6.667000000
O    -1.901000000     4.920000000    -7.828000000
H    -2.472000000     5.392000000    -7.222000000
H    -2.207000000     4.014000000    -7.789000000
O    -3.615000000    -4.297000000    -7.646000000
H    -3.436000000    -3.592000000    -7.024000000
H    -4.559000000    -4.248000000    -7.798000000
O    -2.769000000     2.564000000    -7.086000000
H    -2.675000000     2.735000000    -6.149000000
H    -3.182000000     1.702000000    -7.131000000
O    -5.613000000     2.583000000    -3.991000000
H    -6.242000000     2.912000000    -4.633000000
H    -5.360000000     1.722000000    -4.323000000
O    -1.801000000     3.574000000    -4.449000000
H    -1.228000000     4.212000000    -4.874000000
H    -1.398000000     2.727000000    -4.638000000
O    -4.668000000     0.102000000    -7.996000000
H    -4.660000000     0.836000000    -8.610000000
H    -5.187000000    -0.572000000    -8.435000000
O     0.651000000     3.047000000    -9.455000000
H    -0.306000000     3.047000000    -9.479000000
H     0.870000000     2.594000000    -8.641000000
