215
-1454.33426
C    -3.966000000    -3.593000000    -1.850000000
H    -4.469000000    -3.723000000    -0.895000000
C    -2.557000000    -3.731000000    -1.953000000
C    -2.001000000    -3.576000000    -3.201000000
H    -0.917000000    -3.532000000    -3.271000000
C    -1.701000000    -3.819000000    -0.687000000
O    -2.616000000    -4.291000000     0.407000000
H    -1.174000000    -2.895000000    -0.408000000
O    -0.747000000    -4.862000000    -0.921000000
C     0.445000000    -4.711000000    -0.288000000
C     1.512000000    -4.202000000    -0.977000000
H     1.385000000    -4.007000000    -2.039000000
C     2.730000000    -3.847000000    -0.351000000
O     3.619000000    -3.097000000    -1.124000000
C     2.792000000    -3.871000000     1.003000000
C     4.010000000    -3.278000000     1.690000000
H     4.257000000    -3.756000000     2.640000000
C     3.959000000    -1.766000000     1.933000000
C     3.611000000    -1.328000000     3.203000000
H     3.327000000    -2.099000000     3.914000000
H     4.821000000    -3.621000000     1.044000000
C     1.729000000    -4.400000000     1.734000000
H     1.697000000    -4.425000000     2.821000000
C     0.599000000    -4.814000000     1.114000000
C    -0.503000000    -5.290000000     2.029000000
H    -0.014000000    -5.747000000     2.892000000
H    -1.120000000    -6.069000000     1.577000000
C    -1.398000000    -4.060000000     2.440000000
C    -1.208000000    -3.296000000     3.602000000
H    -0.475000000    -3.536000000     4.367000000
C    -2.483000000    -3.653000000     1.625000000
C    -3.407000000    -2.719000000     1.987000000
H    -4.275000000    -2.555000000     1.354000000
C    -3.155000000    -1.881000000     3.075000000
O    -3.869000000    -0.727000000     3.144000000
C    -3.137000000     0.479000000     2.772000000
C    -4.024000000     1.386000000     1.907000000
C    -3.658000000     2.710000000     1.611000000
H    -2.787000000     3.171000000     2.071000000
C    -5.006000000     0.788000000     1.155000000
H    -5.251000000    -0.270000000     1.212000000
O    -2.652000000     1.181000000     3.915000000
H    -2.300000000     0.161000000     2.133000000
C    -2.033000000    -2.198000000     3.883000000
C    -1.637000000    -1.385000000     5.171000000
H    -1.265000000    -2.045000000     5.958000000
H    -2.546000000    -0.937000000     5.578000000
C    -0.808000000    -0.168000000     4.890000000
C     0.583000000    -0.264000000     5.014000000
H     0.881000000    -1.168000000     5.540000000
C    -1.336000000     1.007000000     4.407000000
C    -0.428000000     1.983000000     4.075000000
H    -0.862000000     2.947000000     3.825000000
C     0.919000000     1.817000000     4.024000000
O     1.667000000     2.855000000     3.443000000
C     2.492000000     2.715000000     2.317000000
C     2.571000000     3.959000000     1.484000000
C     1.432000000     4.772000000     1.381000000
H     0.603000000     4.635000000     2.071000000
C     3.648000000     4.121000000     0.653000000
H     4.583000000     3.568000000     0.698000000
O     3.773000000     2.263000000     2.709000000
H     2.031000000     1.994000000     1.626000000
C     1.442000000     0.731000000     4.584000000
C     2.936000000     0.504000000     4.770000000
H     3.045000000    -0.279000000     5.523000000
H     3.428000000     1.401000000     5.152000000
C     3.546000000     0.021000000     3.508000000
C     3.958000000     0.919000000     2.544000000
C     4.439000000     0.490000000     1.286000000
H     4.665000000     1.255000000     0.547000000
C     4.400000000    -0.833000000     0.994000000
O     4.658000000    -1.165000000    -0.315000000
C     3.504000000    -1.627000000    -1.037000000
H     2.552000000    -1.439000000    -0.520000000
C     3.507000000    -0.909000000    -2.389000000
C     2.439000000    -1.015000000    -3.304000000
H     1.581000000    -1.645000000    -3.081000000
C     4.538000000     0.011000000    -2.694000000
H     5.389000000     0.099000000    -2.022000000
C     4.504000000     0.764000000    -3.886000000
O     5.557000000     1.639000000    -4.150000000
C     3.424000000     0.657000000    -4.765000000
H     3.343000000     1.275000000    -5.656000000
C     2.404000000    -0.241000000    -4.484000000
O     1.236000000    -0.295000000    -5.277000000
C     0.809000000    -1.476000000    -5.696000000
C    -0.486000000    -1.852000000    -5.350000000
H    -1.014000000    -1.187000000    -4.672000000
C     1.614000000    -2.355000000    -6.468000000
H     2.604000000    -1.951000000    -6.665000000
C     1.200000000    -3.602000000    -6.861000000
H     1.883000000    -4.173000000    -7.485000000
C    -0.144000000    -3.894000000    -6.638000000
H    -0.579000000    -4.722000000    -7.192000000
C    -0.950000000    -3.010000000    -5.904000000
O    -2.212000000    -3.372000000    -5.590000000
C    -2.742000000    -3.390000000    -4.334000000
C    -4.110000000    -3.280000000    -4.217000000
H    -4.772000000    -3.168000000    -5.072000000
C    -4.718000000    -3.267000000    -2.972000000
O    -6.099000000    -3.063000000    -2.861000000
C    -6.575000000    -2.341000000    -1.807000000
C    -6.382000000    -1.002000000    -1.673000000
H    -5.943000000    -0.355000000    -2.429000000
C    -7.419000000    -3.001000000    -0.951000000
H    -7.527000000    -4.070000000    -1.120000000
C    -7.888000000    -2.405000000     0.243000000
H    -8.360000000    -3.005000000     1.017000000
C    -7.709000000    -1.017000000     0.349000000
H    -8.119000000    -0.527000000     1.229000000
C    -6.989000000    -0.325000000    -0.618000000
O    -6.825000000     1.002000000    -0.461000000
C    -5.739000000     1.518000000     0.212000000
C    -5.344000000     2.826000000    -0.023000000
H    -5.929000000     3.496000000    -0.648000000
C    -4.293000000     3.426000000     0.638000000
O    -4.096000000     4.753000000     0.360000000
C    -3.156000000     5.584000000     0.863000000
C    -2.006000000     5.782000000     0.134000000
H    -1.908000000     5.457000000    -0.899000000
C    -3.292000000     6.130000000     2.158000000
H    -4.228000000     6.001000000     2.697000000
C    -2.179000000     6.846000000     2.719000000
H    -2.427000000     7.402000000     3.620000000
C    -1.025000000     6.985000000     1.978000000
H    -0.205000000     7.562000000     2.398000000
C    -0.891000000     6.411000000     0.728000000
O     0.298000000     6.435000000     0.065000000
C     1.445000000     5.757000000     0.402000000
C     2.522000000     5.915000000    -0.486000000
H     2.496000000     6.674000000    -1.263000000
C     3.627000000     5.081000000    -0.373000000
O     4.654000000     5.309000000    -1.262000000
C     5.533000000     4.457000000    -1.762000000
C     6.887000000     4.590000000    -1.415000000
H     7.125000000     5.346000000    -0.671000000
C     7.831000000     3.684000000    -1.912000000
H     8.895000000     3.698000000    -1.693000000
C     7.381000000     2.690000000    -2.829000000
H     7.927000000     1.757000000    -2.949000000
C     6.025000000     2.638000000    -3.262000000
C     5.063000000     3.534000000    -2.722000000
H     4.040000000     3.456000000    -3.083000000
C    -2.055000000    -0.243000000    -1.458000000
H    -3.077000000    -0.498000000    -1.725000000
C    -1.414000000    -0.589000000    -0.296000000
H    -2.021000000    -1.093000000     0.452000000
C    -0.098000000    -0.336000000    -0.055000000
H     0.333000000    -0.618000000     0.838000000
C     0.606000000     0.382000000    -0.984000000
H     1.668000000     0.608000000    -0.932000000
C    -0.006000000     0.738000000    -2.225000000
H     0.510000000     1.328000000    -2.979000000
C    -1.371000000     0.509000000    -2.439000000
C    -2.200000000     1.107000000    -3.574000000
O    -1.744000000     1.897000000    -4.404000000
O    -3.413000000     0.859000000    -3.598000000
O    -5.808000000     2.423000000    -3.505000000
H    -4.910000000     2.124000000    -3.648000000
H    -5.955000000     2.301000000    -2.567000000
O    -4.510000000     0.712000000    -8.980000000
H    -4.288000000     1.311000000    -9.693000000
H    -3.668000000     0.359000000    -8.694000000
O     2.058000000     2.262000000    -8.171000000
H     2.175000000     1.410000000    -8.591000000
H     1.289000000     2.151000000    -7.612000000
O    -4.394000000     5.346000000    -2.423000000
H    -4.236000000     4.978000000    -1.553000000
H    -4.233000000     4.619000000    -3.024000000
O    -3.919000000     3.658000000    -7.319000000
H    -4.085000000     3.198000000    -8.142000000
H    -4.651000000     4.270000000    -7.235000000
O    -7.812000000    -1.781000000    -4.551000000
H    -7.343000000    -2.323000000    -3.916000000
H    -7.416000000    -2.003000000    -5.394000000
O    -2.200000000    -0.137000000    -7.965000000
H    -1.438000000     0.285000000    -7.566000000
H    -2.829000000    -0.223000000    -7.248000000
O    -1.464000000     4.492000000    -8.011000000
H    -1.634000000     4.867000000    -8.875000000
H    -2.306000000     4.129000000    -7.737000000
O    -3.468000000     3.825000000    -4.687000000
H    -3.579000000     3.779000000    -5.636000000
H    -3.051000000     2.996000000    -4.453000000
O    -7.069000000     1.100000000    -6.130000000
H    -6.772000000     0.304000000    -6.572000000
H    -6.582000000     1.112000000    -5.306000000
O    -0.690000000     2.045000000    -6.893000000
H    -1.306000000     1.886000000    -6.178000000
H    -0.850000000     2.953000000    -7.149000000
O    -5.876000000     7.218000000    -3.816000000
H    -5.301000000     6.510000000    -3.526000000
H    -6.272000000     6.889000000    -4.624000000
O    -6.652000000    -0.824000000    -9.027000000
H    -5.762000000    -0.509000000    -8.871000000
H    -6.809000000    -0.652000000    -9.955000000
O     0.248000000     3.611000000    -4.088000000
H    -0.541000000     3.072000000    -4.033000000
H     0.739000000     3.241000000    -4.822000000
O    -1.754000000    -2.009000000    -9.909000000
H    -2.024000000    -2.784000000    -9.417000000
H    -1.837000000    -1.288000000    -9.284000000
O    -4.264000000    -2.692000000    -7.628000000
H    -5.203000000    -2.534000000    -7.538000000
H    -3.855000000    -2.022000000    -7.080000000
O    -4.403000000    -0.062000000    -6.072000000
H    -4.278000000     0.143000000    -5.146000000
H    -4.810000000     0.723000000    -6.439000000
O    -1.042000000     6.238000000    -4.131000000
H    -0.550000000     5.418000000    -4.087000000
H    -1.947000000     5.965000000    -4.283000000
O    -8.855000000     2.888000000    -4.190000000
H    -8.779000000     3.076000000    -3.254000000
H    -8.116000000     2.309000000    -4.379000000
