215
-1464.30710
C    -3.249000000    -3.132000000    -2.261000000
H    -3.816000000    -2.990000000    -1.344000000
C    -2.033000000    -3.752000000    -2.154000000
C    -1.333000000    -4.014000000    -3.296000000
H    -0.417000000    -4.583000000    -3.159000000
C    -1.385000000    -3.939000000    -0.825000000
O    -2.298000000    -4.325000000     0.173000000
H    -0.932000000    -2.966000000    -0.582000000
O    -0.292000000    -4.935000000    -0.909000000
C     0.831000000    -4.574000000    -0.245000000
C     1.766000000    -3.813000000    -0.934000000
H     1.584000000    -3.709000000    -2.000000000
C     2.947000000    -3.399000000    -0.344000000
O     3.873000000    -2.724000000    -1.097000000
C     3.140000000    -3.602000000     1.006000000
C     4.338000000    -2.989000000     1.763000000
H     4.623000000    -3.601000000     2.621000000
C     4.258000000    -1.526000000     2.178000000
C     3.847000000    -1.165000000     3.442000000
H     3.729000000    -1.965000000     4.168000000
H     5.221000000    -3.110000000     1.133000000
C     2.097000000    -4.157000000     1.774000000
H     2.116000000    -4.271000000     2.855000000
C     0.949000000    -4.712000000     1.152000000
C    -0.199000000    -5.226000000     2.021000000
H     0.147000000    -5.734000000     2.924000000
H    -0.705000000    -6.043000000     1.501000000
C    -1.281000000    -4.166000000     2.386000000
C    -1.279000000    -3.507000000     3.659000000
H    -0.395000000    -3.627000000     4.281000000
C    -2.271000000    -3.771000000     1.464000000
C    -3.119000000    -2.713000000     1.710000000
H    -3.816000000    -2.353000000     0.957000000
C    -3.063000000    -2.040000000     2.892000000
O    -3.801000000    -0.849000000     2.948000000
C    -3.208000000     0.456000000     2.671000000
C    -4.252000000     1.184000000     1.870000000
C    -3.972000000     2.493000000     1.547000000
H    -3.165000000     3.019000000     2.051000000
C    -5.378000000     0.509000000     1.341000000
H    -5.728000000    -0.491000000     1.587000000
O    -2.802000000     1.098000000     3.876000000
H    -2.299000000     0.349000000     2.060000000
C    -2.086000000    -2.359000000     3.878000000
C    -1.756000000    -1.426000000     5.072000000
H    -1.146000000    -2.041000000     5.738000000
H    -2.676000000    -1.052000000     5.525000000
C    -0.872000000    -0.279000000     4.717000000
C     0.477000000    -0.307000000     5.023000000
H     0.915000000    -1.229000000     5.397000000
C    -1.454000000     0.973000000     4.326000000
C    -0.604000000     2.007000000     4.040000000
H    -0.961000000     2.943000000     3.619000000
C     0.750000000     1.912000000     4.355000000
O     1.571000000     2.981000000     3.987000000
C     2.074000000     2.814000000     2.667000000
C     1.826000000     4.081000000     1.845000000
C     0.666000000     4.873000000     1.907000000
H    -0.061000000     4.608000000     2.671000000
C     2.752000000     4.435000000     0.848000000
H     3.682000000     3.893000000     0.696000000
O     3.412000000     2.476000000     2.976000000
H     1.530000000     2.033000000     2.115000000
C     1.295000000     0.790000000     4.905000000
C     2.808000000     0.607000000     5.121000000
H     2.920000000    -0.193000000     5.856000000
H     3.326000000     1.468000000     5.548000000
C     3.509000000     0.195000000     3.799000000
C     3.644000000     1.118000000     2.760000000
C     4.203000000     0.772000000     1.585000000
H     4.554000000     1.545000000     0.906000000
C     4.461000000    -0.532000000     1.231000000
O     4.963000000    -0.829000000    -0.053000000
C     3.924000000    -1.267000000    -1.005000000
H     2.920000000    -0.978000000    -0.662000000
C     4.050000000    -0.663000000    -2.450000000
C     3.531000000    -1.352000000    -3.523000000
H     3.067000000    -2.329000000    -3.414000000
C     4.528000000     0.638000000    -2.619000000
H     5.041000000     1.144000000    -1.805000000
C     4.519000000     1.232000000    -3.854000000
O     4.958000000     2.483000000    -4.060000000
C     3.956000000     0.528000000    -4.932000000
H     3.819000000     1.015000000    -5.894000000
C     3.447000000    -0.763000000    -4.779000000
O     2.997000000    -1.428000000    -5.893000000
C     2.309000000    -2.567000000    -5.879000000
C     0.929000000    -2.578000000    -5.910000000
H     0.380000000    -1.648000000    -6.037000000
C     3.012000000    -3.767000000    -5.802000000
H     4.046000000    -3.797000000    -6.137000000
C     2.320000000    -4.997000000    -5.570000000
H     2.817000000    -5.964000000    -5.582000000
C     0.955000000    -4.969000000    -5.502000000
H     0.360000000    -5.870000000    -5.370000000
C     0.267000000    -3.788000000    -5.706000000
O    -1.084000000    -3.927000000    -5.732000000
C    -1.849000000    -3.716000000    -4.531000000
C    -3.089000000    -3.159000000    -4.649000000
H    -3.498000000    -2.888000000    -5.619000000
C    -3.842000000    -2.896000000    -3.518000000
O    -5.036000000    -2.355000000    -3.640000000
C    -5.855000000    -2.205000000    -2.585000000
C    -5.970000000    -1.017000000    -1.950000000
H    -5.316000000    -0.172000000    -2.148000000
C    -6.792000000    -3.250000000    -2.382000000
H    -6.625000000    -4.106000000    -3.031000000
C    -7.819000000    -3.024000000    -1.520000000
H    -8.603000000    -3.771000000    -1.420000000
C    -7.889000000    -1.792000000    -0.799000000
H    -8.732000000    -1.619000000    -0.134000000
C    -6.941000000    -0.782000000    -0.952000000
O    -7.095000000     0.511000000    -0.401000000
C    -6.068000000     1.147000000     0.312000000
C    -5.730000000     2.411000000    -0.090000000
H    -6.260000000     2.906000000    -0.901000000
C    -4.625000000     3.076000000     0.490000000
O    -4.335000000     4.265000000    -0.075000000
C    -3.750000000     5.285000000     0.691000000
C    -2.303000000     5.486000000     0.760000000
H    -1.581000000     4.799000000     0.326000000
C    -4.595000000     6.040000000     1.458000000
H    -5.635000000     5.765000000     1.618000000
C    -4.088000000     7.135000000     2.203000000
H    -4.762000000     7.743000000     2.802000000
C    -2.742000000     7.511000000     2.044000000
H    -2.479000000     8.412000000     2.593000000
C    -1.843000000     6.641000000     1.378000000
O    -0.476000000     6.952000000     1.434000000
C     0.500000000     6.055000000     1.152000000
C     1.445000000     6.355000000     0.217000000
H     1.358000000     7.196000000    -0.465000000
C     2.590000000     5.568000000     0.033000000
O     3.422000000     5.984000000    -0.938000000
C     4.416000000     5.208000000    -1.484000000
C     5.754000000     5.381000000    -1.102000000
H     5.990000000     6.152000000    -0.373000000
C     6.762000000     4.561000000    -1.622000000
H     7.744000000     4.672000000    -1.170000000
C     6.556000000     3.567000000    -2.569000000
H     7.349000000     2.901000000    -2.898000000
C     5.201000000     3.456000000    -3.067000000
C     4.197000000     4.244000000    -2.473000000
H     3.170000000     4.012000000    -2.740000000
C    -1.851000000     1.082000000    -1.329000000
H    -2.828000000     0.948000000    -1.786000000
C    -1.404000000     0.088000000    -0.516000000
H    -1.941000000    -0.856000000    -0.469000000
C    -0.140000000     0.312000000     0.081000000
H     0.375000000    -0.369000000     0.760000000
C     0.528000000     1.524000000    -0.127000000
H     1.527000000     1.609000000     0.292000000
C    -0.020000000     2.582000000    -0.910000000
H     0.483000000     3.537000000    -1.040000000
C    -1.261000000     2.356000000    -1.539000000
C    -1.930000000     3.501000000    -2.305000000
O    -1.174000000     4.443000000    -2.498000000
O    -3.051000000     3.406000000    -2.780000000
O    -2.460000000     9.853000000    -1.863000000
H    -2.759000000     9.170000000    -2.464000000
H    -3.000000000     9.738000000    -1.082000000
O    -3.889000000     1.096000000    -4.502000000
H    -3.774000000     1.892000000    -3.983000000
H    -4.802000000     0.846000000    -4.358000000
O    -5.105000000     1.316000000    -7.186000000
H    -4.907000000     2.082000000    -7.724000000
H    -4.478000000     1.362000000    -6.464000000
O     0.610000000     8.726000000    -2.356000000
H     0.562000000     9.151000000    -1.499000000
H    -0.125000000     8.113000000    -2.360000000
O    -5.385000000     4.016000000    -3.923000000
H    -4.571000000     3.931000000    -3.426000000
H    -6.033000000     3.539000000    -3.404000000
O    -0.465000000     2.325000000    -5.382000000
H    -0.827000000     1.440000000    -5.348000000
H    -1.181000000     2.888000000    -5.086000000
O    -6.760000000     7.697000000    -1.650000000
H    -6.944000000     8.623000000    -1.493000000
H    -5.906000000     7.692000000    -2.083000000
O    -0.149000000     7.635000000    -5.789000000
H    -0.430000000     8.253000000    -6.464000000
H     0.765000000     7.866000000    -5.619000000
O    -0.982000000     5.375000000    -6.893000000
H    -0.773000000     6.168000000    -6.400000000
H    -1.221000000     4.734000000    -6.223000000
O    -5.056000000     6.469000000    -5.959000000
H    -5.463000000     5.814000000    -5.391000000
H    -5.071000000     7.275000000    -5.443000000
O     0.609000000     4.584000000    -4.313000000
H    -0.019000000     4.701000000    -3.600000000
H     0.462000000     3.688000000    -4.618000000
O     3.041000000     4.752000000    -5.385000000
H     2.232000000     4.892000000    -4.895000000
H     3.259000000     3.832000000    -5.231000000
O    -1.677000000     6.812000000    -3.729000000
H    -1.503000000     5.920000000    -3.430000000
H    -0.925000000     7.032000000    -4.279000000
O    -2.137000000    -0.748000000    -6.970000000
H    -2.307000000     0.048000000    -7.475000000
H    -1.844000000    -0.431000000    -6.116000000
O    -1.468000000    -0.261000000    -4.454000000
H    -1.287000000    -0.673000000    -3.609000000
H    -2.368000000     0.055000000    -4.378000000
O    -2.518000000     3.941000000    -5.239000000
H    -2.549000000     3.885000000    -4.284000000
H    -3.395000000     4.231000000    -5.492000000
O    -4.113000000     6.926000000    -2.653000000
H    -3.276000000     6.746000000    -3.080000000
H    -4.400000000     6.075000000    -2.319000000
O     1.376000000     2.355000000    -7.440000000
H     1.024000000     3.231000000    -7.597000000
H     0.745000000     1.946000000    -6.847000000
O    -6.515000000     1.141000000    -4.636000000
H    -6.627000000     0.793000000    -5.521000000
H    -6.740000000     2.068000000    -4.713000000
