215
-1459.42055
C    -3.400000000    -2.955000000    -2.057000000
H    -4.064000000    -3.146000000    -1.218000000
C    -1.992000000    -3.004000000    -1.943000000
C    -1.181000000    -2.893000000    -3.116000000
H    -0.109000000    -3.005000000    -2.975000000
C    -1.344000000    -3.557000000    -0.661000000
O    -2.381000000    -4.066000000     0.154000000
H    -0.881000000    -2.647000000    -0.253000000
O    -0.376000000    -4.598000000    -0.878000000
C     0.708000000    -4.612000000    -0.029000000
C     1.904000000    -4.200000000    -0.585000000
H     1.946000000    -4.241000000    -1.670000000
C     3.022000000    -3.800000000     0.199000000
O     4.097000000    -3.338000000    -0.432000000
C     2.910000000    -3.874000000     1.594000000
C     4.026000000    -3.194000000     2.380000000
H     3.947000000    -3.712000000     3.338000000
C     3.876000000    -1.688000000     2.471000000
C     3.201000000    -1.190000000     3.613000000
H     2.643000000    -1.885000000     4.235000000
H     5.071000000    -3.341000000     2.099000000
C     1.758000000    -4.262000000     2.192000000
H     1.727000000    -4.220000000     3.278000000
C     0.577000000    -4.640000000     1.424000000
C    -0.705000000    -5.116000000     2.166000000
H    -0.389000000    -5.649000000     3.065000000
H    -1.221000000    -5.930000000     1.652000000
C    -1.756000000    -3.969000000     2.456000000
C    -1.625000000    -3.208000000     3.623000000
H    -0.770000000    -3.477000000     4.239000000
C    -2.627000000    -3.507000000     1.389000000
C    -3.489000000    -2.381000000     1.625000000
H    -4.240000000    -2.020000000     0.927000000
C    -3.345000000    -1.711000000     2.843000000
O    -4.101000000    -0.552000000     2.940000000
C    -3.473000000     0.635000000     2.628000000
C    -4.294000000     1.455000000     1.592000000
C    -3.886000000     2.721000000     1.193000000
H    -3.002000000     3.136000000     1.670000000
C    -5.381000000     0.904000000     0.870000000
H    -5.765000000    -0.079000000     1.129000000
O    -3.092000000     1.371000000     3.812000000
H    -2.553000000     0.455000000     2.052000000
C    -2.397000000    -2.054000000     3.792000000
C    -2.302000000    -1.191000000     5.116000000
H    -1.823000000    -1.819000000     5.870000000
H    -3.285000000    -0.817000000     5.411000000
C    -1.335000000     0.010000000     4.900000000
C     0.006000000    -0.054000000     5.174000000
H     0.336000000    -0.980000000     5.638000000
C    -1.801000000     1.123000000     4.313000000
C    -0.902000000     2.157000000     3.904000000
H    -1.266000000     3.081000000     3.462000000
C     0.439000000     2.044000000     4.088000000
O     1.212000000     3.056000000     3.613000000
C     2.002000000     2.779000000     2.434000000
C     2.113000000     3.981000000     1.505000000
C     1.124000000     4.931000000     1.495000000
H     0.292000000     4.940000000     2.195000000
C     3.172000000     4.212000000     0.691000000
H     3.884000000     3.401000000     0.563000000
O     3.351000000     2.354000000     2.809000000
H     1.518000000     1.981000000     1.852000000
C     0.943000000     0.936000000     4.827000000
C     2.401000000     0.725000000     5.119000000
H     2.452000000     0.017000000     5.949000000
H     2.895000000     1.636000000     5.465000000
C     3.153000000     0.191000000     3.856000000
C     3.622000000     1.038000000     2.814000000
C     4.208000000     0.560000000     1.663000000
H     4.437000000     1.291000000     0.892000000
C     4.389000000    -0.793000000     1.545000000
O     4.901000000    -1.192000000     0.334000000
C     4.038000000    -1.879000000    -0.595000000
H     3.029000000    -1.588000000    -0.267000000
C     4.236000000    -1.296000000    -2.027000000
C     3.901000000    -2.139000000    -3.093000000
H     3.633000000    -3.187000000    -2.991000000
C     4.651000000     0.019000000    -2.306000000
H     4.922000000     0.730000000    -1.530000000
C     4.838000000     0.436000000    -3.625000000
O     5.151000000     1.782000000    -3.896000000
C     4.579000000    -0.413000000    -4.693000000
H     4.620000000    -0.025000000    -5.707000000
C     4.128000000    -1.674000000    -4.388000000
O     3.765000000    -2.559000000    -5.385000000
C     2.586000000    -3.253000000    -5.639000000
C     1.404000000    -2.558000000    -5.462000000
H     1.412000000    -1.522000000    -5.134000000
C     2.609000000    -4.500000000    -6.240000000
H     3.573000000    -4.949000000    -6.466000000
C     1.407000000    -5.225000000    -6.440000000
H     1.459000000    -6.232000000    -6.845000000
C     0.234000000    -4.593000000    -6.234000000
H    -0.673000000    -5.138000000    -6.484000000
C     0.234000000    -3.262000000    -5.694000000
O    -0.933000000    -2.601000000    -5.551000000
C    -1.697000000    -2.688000000    -4.385000000
C    -3.083000000    -2.601000000    -4.502000000
H    -3.607000000    -2.291000000    -5.403000000
C    -3.892000000    -2.646000000    -3.337000000
O    -5.279000000    -2.586000000    -3.484000000
C    -6.183000000    -2.031000000    -2.530000000
C    -5.989000000    -0.780000000    -1.947000000
H    -5.077000000    -0.198000000    -2.058000000
C    -7.333000000    -2.785000000    -2.260000000
H    -7.376000000    -3.830000000    -2.557000000
C    -8.471000000    -2.170000000    -1.821000000
H    -9.411000000    -2.702000000    -1.705000000
C    -8.344000000    -0.902000000    -1.329000000
H    -9.235000000    -0.358000000    -1.025000000
C    -7.088000000    -0.223000000    -1.272000000
O    -7.146000000     1.081000000    -0.789000000
C    -6.084000000     1.608000000    -0.117000000
C    -5.717000000     2.867000000    -0.451000000
H    -6.188000000     3.401000000    -1.272000000
C    -4.608000000     3.413000000     0.219000000
O    -4.167000000     4.690000000    -0.259000000
C    -3.315000000     5.474000000     0.483000000
C    -1.988000000     5.696000000     0.093000000
H    -1.564000000     5.149000000    -0.745000000
C    -3.820000000     6.197000000     1.604000000
H    -4.866000000     6.132000000     1.890000000
C    -3.043000000     7.052000000     2.332000000
H    -3.466000000     7.643000000     3.140000000
C    -1.723000000     7.217000000     1.983000000
H    -1.135000000     7.851000000     2.642000000
C    -1.174000000     6.538000000     0.869000000
O     0.065000000     6.898000000     0.461000000
C     1.137000000     6.065000000     0.715000000
C     2.234000000     6.331000000    -0.100000000
H     2.289000000     7.268000000    -0.648000000
C     3.228000000     5.380000000    -0.141000000
O     4.352000000     5.586000000    -0.996000000
C     5.147000000     4.639000000    -1.521000000
C     6.427000000     4.532000000    -0.998000000
H     6.845000000     5.259000000    -0.307000000
C     7.279000000     3.528000000    -1.476000000
H     8.315000000     3.402000000    -1.170000000
C     6.852000000     2.668000000    -2.448000000
H     7.610000000     2.046000000    -2.918000000
C     5.495000000     2.687000000    -2.885000000
C     4.668000000     3.719000000    -2.420000000
H     3.658000000     3.885000000    -2.786000000
C    -1.749000000     1.559000000    -1.686000000
H    -2.788000000     1.459000000    -1.988000000
C    -1.157000000     0.491000000    -0.925000000
H    -1.695000000    -0.395000000    -0.596000000
C     0.195000000     0.593000000    -0.569000000
H     0.657000000    -0.307000000    -0.078000000
C     0.945000000     1.650000000    -1.097000000
H     1.983000000     1.793000000    -0.809000000
C     0.465000000     2.570000000    -1.987000000
H     1.050000000     3.420000000    -2.330000000
C    -0.914000000     2.586000000    -2.227000000
C    -1.538000000     3.643000000    -3.066000000
O    -0.909000000     4.488000000    -3.659000000
O    -2.763000000     3.740000000    -3.159000000
O    -1.426000000     8.848000000    -2.150000000
H    -1.425000000     8.281000000    -2.922000000
H    -1.127000000     8.283000000    -1.438000000
O    -3.928000000     1.661000000    -4.819000000
H    -3.646000000     2.472000000    -4.396000000
H    -4.625000000     1.933000000    -5.417000000
O    -4.805000000     2.436000000    -7.624000000
H    -4.833000000     2.674000000    -8.551000000
H    -4.373000000     3.178000000    -7.200000000
O     1.527000000     8.766000000    -2.879000000
H     0.655000000     8.403000000    -2.724000000
H     1.919000000     8.181000000    -3.528000000
O    -5.111000000     8.619000000    -4.336000000
H    -4.887000000     7.814000000    -3.868000000
H    -6.065000000     8.667000000    -4.286000000
O    -4.953000000     4.379000000    -4.610000000
H    -4.237000000     4.054000000    -4.064000000
H    -5.723000000     4.343000000    -4.042000000
O     0.978000000     1.305000000    -5.257000000
H     0.094000000     1.016000000    -5.028000000
H     1.468000000     0.493000000    -5.391000000
O    -5.638000000     7.057000000    -1.344000000
H    -5.526000000     6.211000000    -0.910000000
H    -4.798000000     7.219000000    -1.773000000
O     1.531000000     3.057000000    -7.694000000
H     1.654000000     3.147000000    -6.749000000
H     1.721000000     3.927000000    -8.044000000
O    -0.597000000     5.369000000    -8.395000000
H    -1.081000000     5.037000000    -9.151000000
H    -1.225000000     5.333000000    -7.674000000
O    -4.002000000     6.487000000    -6.293000000
H    -4.534000000     5.911000000    -5.744000000
H    -3.983000000     7.319000000    -5.820000000
O     1.352000000     4.045000000    -4.673000000
H     0.529000000     4.304000000    -4.257000000
H     1.212000000     3.136000000    -4.938000000
O     2.143000000     6.969000000    -4.728000000
H     2.871000000     7.111000000    -5.333000000
H     2.004000000     6.023000000    -4.739000000
O    -0.984000000     7.314000000    -4.518000000
H    -0.757000000     6.390000000    -4.408000000
H    -0.474000000     7.597000000    -5.277000000
O    -2.025000000    -0.508000000    -7.298000000
H    -1.837000000     0.423000000    -7.176000000
H    -1.544000000    -0.944000000    -6.594000000
O    -1.496000000     0.593000000    -4.624000000
H    -1.633000000     0.070000000    -3.835000000
H    -2.310000000     1.085000000    -4.730000000
O    -2.033000000     4.455000000    -5.958000000
H    -1.695000000     4.416000000    -5.064000000
H    -2.567000000     5.249000000    -5.978000000
O    -3.291000000     6.423000000    -2.994000000
H    -3.291000000     5.466000000    -2.972000000
H    -2.635000000     6.647000000    -3.655000000
O    -1.280000000     1.930000000    -7.187000000
H    -1.593000000     2.726000000    -6.756000000
H    -0.328000000     1.969000000    -7.099000000
