215
-1443.94724
C    -4.353000000    -1.484000000    -2.127000000
H    -3.662000000    -1.090000000    -2.868000000
C    -4.734000000    -0.599000000    -1.046000000
C    -5.359000000    -1.140000000     0.046000000
H    -5.505000000    -0.595000000     0.975000000
C    -4.307000000     0.857000000    -1.106000000
O    -4.482000000     1.483000000    -2.410000000
H    -3.218000000     0.872000000    -0.950000000
O    -4.898000000     1.647000000    -0.114000000
C    -4.076000000     2.357000000     0.683000000
C    -3.584000000     1.694000000     1.806000000
H    -4.011000000     0.765000000     2.176000000
C    -2.553000000     2.406000000     2.587000000
O    -2.123000000     1.738000000     3.649000000
C    -1.978000000     3.611000000     2.193000000
C    -0.989000000     4.328000000     3.080000000
H    -1.010000000     5.387000000     2.814000000
C     0.384000000     3.830000000     2.726000000
C     1.181000000     4.459000000     1.695000000
H     0.790000000     5.351000000     1.211000000
H    -1.219000000     4.224000000     4.142000000
C    -2.515000000     4.131000000     1.029000000
H    -2.063000000     4.974000000     0.515000000
C    -3.516000000     3.529000000     0.287000000
C    -3.868000000     4.046000000    -1.106000000
H    -3.705000000     5.124000000    -1.061000000
H    -4.926000000     3.980000000    -1.369000000
C    -2.995000000     3.428000000    -2.204000000
C    -1.756000000     4.058000000    -2.472000000
H    -1.526000000     4.996000000    -1.973000000
C    -3.371000000     2.224000000    -2.848000000
C    -2.515000000     1.652000000    -3.795000000
H    -2.773000000     0.703000000    -4.259000000
C    -1.289000000     2.222000000    -3.993000000
O    -0.469000000     1.459000000    -4.768000000
C     0.650000000     0.849000000    -4.156000000
C     0.942000000    -0.558000000    -4.790000000
C     2.184000000    -1.169000000    -4.604000000
H     2.896000000    -0.618000000    -3.994000000
C    -0.074000000    -1.244000000    -5.486000000
H    -0.980000000    -0.693000000    -5.726000000
O     1.806000000     1.723000000    -4.321000000
H     0.344000000     0.815000000    -3.100000000
C    -0.897000000     3.432000000    -3.396000000
C     0.421000000     4.112000000    -3.759000000
H     0.216000000     5.164000000    -3.549000000
H     0.578000000     4.075000000    -4.839000000
C     1.603000000     3.629000000    -2.902000000
C     2.154000000     4.310000000    -1.776000000
H     1.950000000     5.336000000    -1.479000000
C     2.243000000     2.421000000    -3.213000000
C     3.219000000     1.840000000    -2.417000000
H     3.565000000     0.827000000    -2.603000000
C     3.589000000     2.456000000    -1.212000000
O     4.441000000     1.817000000    -0.333000000
C     3.926000000     1.217000000     0.845000000
C     4.538000000    -0.113000000     1.204000000
C     4.785000000    -1.000000000     0.148000000
H     4.583000000    -0.784000000    -0.899000000
C     4.871000000    -0.614000000     2.503000000
H     4.595000000     0.050000000     3.319000000
O     4.030000000     2.134000000     1.949000000
H     2.845000000     1.093000000     0.687000000
C     3.048000000     3.705000000    -0.914000000
C     3.372000000     4.484000000     0.367000000
H     3.152000000     5.545000000     0.237000000
H     4.422000000     4.307000000     0.610000000
C     2.513000000     4.002000000     1.521000000
C     2.954000000     2.951000000     2.299000000
C     2.133000000     2.383000000     3.271000000
H     2.487000000     1.470000000     3.744000000
C     0.874000000     2.743000000     3.438000000
O     0.058000000     2.120000000     4.335000000
C    -0.789000000     1.131000000     3.705000000
H    -0.411000000     0.981000000     2.682000000
C    -0.721000000    -0.192000000     4.444000000
C    -1.883000000    -0.975000000     4.371000000
H    -2.801000000    -0.583000000     3.941000000
C     0.464000000    -0.661000000     5.018000000
H     1.366000000    -0.059000000     5.105000000
C     0.351000000    -1.889000000     5.672000000
O     1.412000000    -2.487000000     6.318000000
C    -0.806000000    -2.701000000     5.569000000
H    -0.783000000    -3.715000000     5.960000000
C    -1.968000000    -2.205000000     4.988000000
O    -3.165000000    -2.986000000     5.040000000
C    -4.323000000    -2.566000000     4.428000000
C    -4.582000000    -2.985000000     3.124000000
H    -3.954000000    -3.694000000     2.590000000
C    -5.273000000    -1.836000000     5.158000000
H    -5.159000000    -1.562000000     6.203000000
C    -6.498000000    -1.459000000     4.514000000
H    -7.271000000    -0.877000000     5.010000000
C    -6.798000000    -1.880000000     3.179000000
H    -7.651000000    -1.489000000     2.631000000
C    -5.834000000    -2.694000000     2.552000000
O    -6.109000000    -3.149000000     1.249000000
C    -5.538000000    -2.532000000     0.136000000
C    -5.334000000    -3.367000000    -0.987000000
H    -5.564000000    -4.428000000    -0.920000000
C    -4.719000000    -2.848000000    -2.070000000
O    -4.417000000    -3.750000000    -3.127000000
C    -3.869000000    -3.400000000    -4.321000000
C    -2.579000000    -3.713000000    -4.755000000
H    -1.984000000    -4.473000000    -4.254000000
C    -4.716000000    -2.796000000    -5.187000000
H    -5.725000000    -2.560000000    -4.859000000
C    -4.301000000    -2.358000000    -6.424000000
H    -5.118000000    -2.014000000    -7.053000000
C    -2.975000000    -2.452000000    -6.820000000
H    -2.642000000    -2.197000000    -7.823000000
C    -2.147000000    -3.232000000    -6.014000000
O    -0.808000000    -3.360000000    -6.327000000
C     0.121000000    -2.581000000    -5.773000000
C     1.335000000    -3.243000000    -5.509000000
H     1.499000000    -4.294000000    -5.732000000
C     2.398000000    -2.532000000    -4.955000000
O     3.506000000    -3.294000000    -4.747000000
C     4.498000000    -2.779000000    -3.981000000
C     4.707000000    -3.188000000    -2.620000000
H     4.085000000    -3.976000000    -2.204000000
C     5.374000000    -1.876000000    -4.542000000
H     5.247000000    -1.576000000    -5.579000000
C     6.405000000    -1.240000000    -3.768000000
H     7.035000000    -0.532000000    -4.301000000
C     6.528000000    -1.596000000    -2.439000000
H     7.283000000    -1.146000000    -1.800000000
C     5.746000000    -2.605000000    -1.937000000
O     5.889000000    -2.980000000    -0.610000000
C     5.351000000    -2.230000000     0.405000000
C     5.662000000    -2.615000000     1.658000000
H     6.047000000    -3.625000000     1.776000000
C     5.332000000    -1.839000000     2.745000000
O     5.635000000    -2.279000000     4.049000000
C     4.899000000    -2.043000000     5.163000000
C     5.588000000    -1.711000000     6.314000000
H     6.673000000    -1.775000000     6.302000000
C     4.791000000    -1.595000000     7.454000000
H     5.309000000    -1.263000000     8.350000000
C     3.389000000    -1.823000000     7.435000000
H     2.934000000    -1.809000000     8.422000000
C     2.714000000    -2.084000000     6.276000000
C     3.498000000    -2.218000000     5.129000000
H     3.034000000    -2.446000000     4.172000000
C     0.876000000    -2.344000000    -1.128000000
H     1.682000000    -2.875000000    -1.629000000
C     0.923000000    -0.973000000    -0.958000000
H     1.739000000    -0.497000000    -1.496000000
C    -0.069000000    -0.271000000    -0.298000000
H    -0.096000000     0.794000000    -0.134000000
C    -1.165000000    -0.944000000     0.192000000
H    -1.888000000    -0.312000000     0.701000000
C    -1.374000000    -2.276000000     0.004000000
H    -2.255000000    -2.774000000     0.401000000
C    -0.305000000    -2.986000000    -0.680000000
C    -0.345000000    -4.599000000    -0.786000000
O    -1.040000000    -5.361000000    -0.104000000
O     0.579000000    -5.176000000    -1.309000000
O     4.391000000    -6.068000000    -0.209000000
H     4.455000000    -7.015000000    -0.338000000
H     5.204000000    -5.721000000    -0.575000000
O    -4.822000000    -7.532000000     2.587000000
H    -4.287000000    -7.041000000     3.211000000
H    -4.293000000    -7.562000000     1.790000000
O    -3.366000000    -6.050000000    -1.728000000
H    -3.939000000    -5.285000000    -1.772000000
H    -3.117000000    -6.110000000    -0.806000000
O    -3.197000000   -10.325000000     0.279000000
H    -2.726000000   -10.910000000    -0.314000000
H    -3.656000000    -9.716000000    -0.300000000
O     0.451000000    -7.752000000     0.227000000
H     0.143000000    -6.870000000     0.017000000
H     1.352000000    -7.773000000    -0.095000000
O    -0.896000000    -6.475000000    -2.833000000
H    -1.736000000    -6.419000000    -2.376000000
H    -0.294000000    -5.967000000    -2.291000000
O    -4.530000000    -8.723000000    -1.615000000
H    -5.454000000    -8.622000000    -1.842000000
H    -4.210000000    -7.828000000    -1.508000000
O    -2.673000000    -7.394000000     0.602000000
H    -2.193000000    -8.174000000     0.324000000
H    -2.007000000    -6.709000000     0.654000000
O     4.817000000    -7.048000000    -3.933000000
H     3.981000000    -6.591000000    -4.023000000
H     5.266000000    -6.588000000    -3.223000000
O     2.349000000    -6.246000000    -3.263000000
H     1.597000000    -6.096000000    -3.836000000
H     2.059000000    -5.941000000    -2.403000000
O    -1.853000000    -5.152000000     2.472000000
H    -1.178000000    -4.522000000     2.724000000
H    -1.761000000    -5.236000000     1.523000000
O     2.197000000    -5.054000000     0.822000000
H     1.487000000    -5.043000000     0.181000000
H     2.952000000    -5.390000000     0.339000000
O     1.543000000    -8.636000000     2.554000000
H     0.969000000    -8.396000000     1.827000000
H     2.106000000    -7.871000000     2.678000000
O    -3.343000000    -7.498000000    -4.212000000
H    -3.082000000    -7.090000000    -3.386000000
H    -3.186000000    -8.432000000    -4.078000000
O    -0.100000000    -8.787000000    -4.415000000
H    -0.152000000    -8.074000000    -3.778000000
H    -0.066000000    -9.582000000    -3.883000000
O    -3.671000000    -5.887000000     4.412000000
H    -3.081000000    -5.411000000     3.826000000
H    -3.130000000    -6.104000000     5.171000000
O     3.387000000    -9.435000000    -3.388000000
H     3.483000000    -9.118000000    -2.490000000
H     3.828000000    -8.775000000    -3.923000000
O     1.061000000    -2.996000000     2.334000000
H     1.075000000    -2.217000000     1.778000000
H     1.401000000    -3.695000000     1.774000000
O     3.084000000    -6.534000000     3.049000000
H     3.032000000    -5.864000000     2.368000000
H     2.859000000    -6.073000000     3.857000000
