215
-1461.21696
C    -3.858000000    -3.159000000    -1.408000000
H    -4.161000000    -2.677000000    -0.481000000
C    -2.620000000    -3.783000000    -1.448000000
C    -2.071000000    -4.141000000    -2.652000000
H    -1.115000000    -4.654000000    -2.579000000
C    -1.805000000    -3.896000000    -0.160000000
O    -2.697000000    -4.110000000     1.015000000
H    -1.325000000    -2.945000000     0.114000000
O    -0.813000000    -4.898000000    -0.230000000
C     0.462000000    -4.658000000     0.205000000
C     1.346000000    -4.373000000    -0.769000000
H     1.078000000    -4.398000000    -1.822000000
C     2.560000000    -3.774000000    -0.430000000
O     3.310000000    -3.264000000    -1.360000000
C     2.933000000    -3.753000000     0.952000000
C     4.259000000    -3.209000000     1.479000000
H     4.521000000    -3.842000000     2.329000000
C     4.112000000    -1.712000000     1.668000000
C     3.799000000    -1.200000000     2.905000000
H     3.483000000    -1.855000000     3.713000000
H     5.041000000    -3.497000000     0.773000000
C     1.984000000    -4.098000000     1.939000000
H     2.326000000    -4.055000000     2.970000000
C     0.673000000    -4.515000000     1.584000000
C    -0.348000000    -4.893000000     2.625000000
H     0.134000000    -5.271000000     3.529000000
H    -0.748000000    -5.837000000     2.248000000
C    -1.337000000    -3.816000000     3.047000000
C    -0.894000000    -2.898000000     3.960000000
H     0.045000000    -3.093000000     4.472000000
C    -2.485000000    -3.484000000     2.204000000
C    -3.217000000    -2.301000000     2.465000000
H    -4.001000000    -2.061000000     1.752000000
C    -2.937000000    -1.533000000     3.597000000
O    -3.563000000    -0.253000000     3.734000000
C    -2.884000000     0.932000000     3.157000000
C    -3.960000000     1.816000000     2.539000000
C    -3.832000000     3.205000000     2.643000000
H    -3.124000000     3.628000000     3.352000000
C    -4.910000000     1.294000000     1.685000000
H    -5.005000000     0.216000000     1.587000000
O    -2.220000000     1.635000000     4.251000000
H    -2.249000000     0.621000000     2.315000000
C    -1.699000000    -1.794000000     4.276000000
C    -1.192000000    -0.897000000     5.425000000
H    -0.591000000    -1.445000000     6.153000000
H    -2.032000000    -0.462000000     5.970000000
C    -0.308000000     0.207000000     4.933000000
C     1.061000000     0.033000000     4.989000000
H     1.442000000    -0.917000000     5.355000000
C    -0.880000000     1.384000000     4.400000000
C     0.000000000     2.380000000     3.962000000
H    -0.371000000     3.329000000     3.584000000
C     1.347000000     2.143000000     3.923000000
O     2.249000000     3.087000000     3.379000000
C     2.868000000     2.837000000     2.122000000
C     2.601000000     3.921000000     1.091000000
C     1.246000000     4.282000000     0.772000000
H     0.458000000     3.881000000     1.404000000
C     3.563000000     4.372000000     0.196000000
H     4.572000000     3.973000000     0.261000000
O     4.215000000     2.358000000     2.245000000
H     2.254000000     1.999000000     1.764000000
C     1.896000000     0.993000000     4.461000000
C     3.370000000     0.750000000     4.433000000
H     3.622000000     0.073000000     5.252000000
H     3.876000000     1.711000000     4.542000000
C     3.850000000     0.166000000     3.166000000
C     4.324000000     0.982000000     2.154000000
C     4.515000000     0.481000000     0.846000000
H     4.785000000     1.144000000     0.028000000
C     4.417000000    -0.828000000     0.603000000
O     4.532000000    -1.287000000    -0.679000000
C     3.365000000    -1.858000000    -1.375000000
H     2.470000000    -1.496000000    -0.848000000
C     3.388000000    -1.390000000    -2.802000000
C     2.873000000    -2.190000000    -3.806000000
H     2.509000000    -3.170000000    -3.507000000
C     3.927000000    -0.141000000    -3.211000000
H     4.295000000     0.579000000    -2.484000000
C     3.855000000     0.320000000    -4.546000000
O     4.094000000     1.660000000    -4.891000000
C     3.265000000    -0.522000000    -5.488000000
H     3.195000000    -0.177000000    -6.517000000
C     2.768000000    -1.730000000    -5.113000000
O     1.926000000    -2.337000000    -6.000000000
C     1.125000000    -3.368000000    -5.752000000
C    -0.283000000    -3.342000000    -5.574000000
H    -0.812000000    -2.400000000    -5.698000000
C     1.698000000    -4.582000000    -5.899000000
H     2.756000000    -4.668000000    -6.133000000
C     0.966000000    -5.712000000    -5.685000000
H     1.464000000    -6.670000000    -5.811000000
C    -0.366000000    -5.700000000    -5.328000000
H    -0.818000000    -6.603000000    -4.926000000
C    -1.002000000    -4.471000000    -5.344000000
O    -2.265000000    -4.404000000    -5.018000000
C    -2.709000000    -3.817000000    -3.839000000
C    -4.015000000    -3.278000000    -3.785000000
H    -4.580000000    -2.980000000    -4.665000000
C    -4.606000000    -2.906000000    -2.618000000
O    -5.850000000    -2.338000000    -2.692000000
C    -6.498000000    -1.628000000    -1.714000000
C    -6.138000000    -0.321000000    -1.500000000
H    -5.413000000     0.142000000    -2.165000000
C    -7.507000000    -2.256000000    -1.031000000
H    -7.741000000    -3.308000000    -1.173000000
C    -8.186000000    -1.531000000    -0.028000000
H    -9.052000000    -1.939000000     0.485000000
C    -7.749000000    -0.249000000     0.304000000
H    -8.229000000     0.380000000     1.050000000
C    -6.739000000     0.344000000    -0.414000000
O    -6.434000000     1.693000000    -0.196000000
C    -5.662000000     2.164000000     0.882000000
C    -5.558000000     3.552000000     1.016000000
H    -6.174000000     4.176000000     0.374000000
C    -4.623000000     4.080000000     1.921000000
O    -4.408000000     5.459000000     2.054000000
C    -3.203000000     6.093000000     1.736000000
C    -2.277000000     5.498000000     0.853000000
H    -2.558000000     4.623000000     0.272000000
C    -2.933000000     7.314000000     2.339000000
H    -3.704000000     7.745000000     2.972000000
C    -1.670000000     7.937000000     2.075000000
H    -1.513000000     8.886000000     2.581000000
C    -0.810000000     7.407000000     1.161000000
H     0.055000000     8.032000000     0.955000000
C    -1.036000000     6.106000000     0.622000000
O    -0.323000000     5.637000000    -0.441000000
C     0.910000000     5.146000000    -0.247000000
C     1.928000000     5.586000000    -1.034000000
H     1.694000000     6.283000000    -1.835000000
C     3.237000000     5.161000000    -0.873000000
O     4.121000000     5.455000000    -1.921000000
C     4.782000000     4.483000000    -2.641000000
C     6.192000000     4.564000000    -2.711000000
H     6.750000000     5.427000000    -2.358000000
C     6.901000000     3.607000000    -3.412000000
H     7.968000000     3.659000000    -3.612000000
C     6.207000000     2.630000000    -4.148000000
H     6.809000000     1.874000000    -4.645000000
C     4.839000000     2.572000000    -4.123000000
C     4.145000000     3.480000000    -3.311000000
H     3.064000000     3.386000000    -3.261000000
C    -2.295000000     1.572000000    -0.785000000
H    -3.355000000     1.679000000    -0.998000000
C    -1.787000000     0.508000000    -0.032000000
H    -2.522000000    -0.088000000     0.502000000
C    -0.428000000     0.278000000     0.121000000
H     0.012000000    -0.584000000     0.613000000
C     0.459000000     1.128000000    -0.480000000
H     1.534000000     1.054000000    -0.335000000
C    -0.011000000     2.194000000    -1.211000000
H     0.677000000     2.884000000    -1.693000000
C    -1.363000000     2.475000000    -1.339000000
C    -1.900000000     3.619000000    -2.291000000
O    -1.218000000     4.134000000    -3.151000000
O    -3.119000000     3.713000000    -2.257000000
O    -0.568000000     8.069000000    -2.788000000
H    -0.898000000     7.170000000    -2.763000000
H    -1.212000000     8.546000000    -3.310000000
O    -1.539000000    -0.106000000    -6.712000000
H    -1.206000000    -0.261000000    -5.828000000
H    -0.770000000     0.163000000    -7.214000000
O    -3.793000000     0.904000000    -5.321000000
H    -4.369000000     1.310000000    -5.968000000
H    -2.934000000     0.885000000    -5.744000000
O     2.075000000     7.916000000    -3.890000000
H     1.231000000     8.095000000    -3.477000000
H     2.100000000     6.963000000    -3.980000000
O    -5.748000000     3.653000000    -2.281000000
H    -4.797000000     3.682000000    -2.177000000
H    -6.073000000     3.369000000    -1.427000000
O     0.293000000     0.251000000    -4.443000000
H    -0.333000000     0.066000000    -3.743000000
H     1.112000000    -0.142000000    -4.142000000
O    -6.260000000     6.892000000    -0.499000000
H    -6.332000000     6.245000000    -1.200000000
H    -5.337000000     7.147000000    -0.503000000
O    -3.998000000     8.793000000    -0.902000000
H    -3.246000000     9.336000000    -0.668000000
H    -3.616000000     7.957000000    -1.170000000
O     1.723000000     5.431000000    -4.817000000
H     2.435000000     5.500000000    -5.454000000
H     1.496000000     4.502000000    -4.811000000
O    -2.207000000     4.055000000    -7.317000000
H    -2.991000000     3.793000000    -6.834000000
H    -1.744000000     4.643000000    -6.720000000
O     0.993000000     2.798000000    -4.822000000
H     0.239000000     3.144000000    -4.346000000
H     0.724000000     1.920000000    -5.093000000
O    -1.191000000     5.902000000    -5.034000000
H    -1.105000000     5.144000000    -4.456000000
H    -0.351000000     6.355000000    -4.963000000
O    -5.747000000     5.353000000    -6.041000000
H    -6.407000000     4.899000000    -6.566000000
H    -5.268000000     4.651000000    -5.600000000
O    -2.367000000    -0.428000000    -3.587000000
H    -2.994000000     0.031000000    -4.146000000
H    -2.870000000    -0.668000000    -2.809000000
O    -4.123000000     3.638000000    -4.790000000
H    -3.439000000     3.976000000    -4.211000000
H    -4.009000000     2.688000000    -4.765000000
O    -3.638000000     6.458000000    -2.327000000
H    -4.368000000     6.512000000    -2.943000000
H    -3.434000000     5.523000000    -2.277000000
O    -3.790000000     7.281000000    -5.619000000
H    -4.495000000     6.716000000    -5.936000000
H    -3.028000000     6.705000000    -5.563000000
O    -6.256000000     6.117000000    -3.267000000
H    -6.055000000     5.240000000    -2.941000000
H    -6.523000000     5.981000000    -4.175000000
O    -7.019000000     2.456000000    -4.220000000
H    -7.251000000     2.916000000    -5.027000000
H    -6.584000000     3.118000000    -3.683000000
