215
-1450.25753
C    -4.114000000    -1.977000000     1.822000000
H    -4.017000000    -1.595000000     2.835000000
C    -3.121000000    -2.773000000     1.305000000
C    -3.232000000    -3.249000000    -0.047000000
H    -2.455000000    -3.881000000    -0.471000000
C    -1.836000000    -2.982000000     2.091000000
O    -1.885000000    -2.780000000     3.541000000
H    -1.129000000    -2.220000000     1.731000000
O    -1.245000000    -4.250000000     1.832000000
C     0.117000000    -4.227000000     1.540000000
C     0.592000000    -4.568000000     0.266000000
H    -0.110000000    -4.751000000    -0.544000000
C     1.876000000    -4.423000000    -0.115000000
O     2.120000000    -4.507000000    -1.468000000
C     2.796000000    -3.999000000     0.854000000
C     4.190000000    -3.683000000     0.338000000
H     4.939000000    -3.885000000     1.107000000
C     4.423000000    -2.272000000    -0.186000000
C     4.773000000    -1.322000000     0.731000000
H     5.190000000    -1.565000000     1.705000000
H     4.392000000    -4.454000000    -0.408000000
C     2.432000000    -3.806000000     2.147000000
H     3.187000000    -3.452000000     2.845000000
C     1.070000000    -3.902000000     2.532000000
C     0.719000000    -3.786000000     4.023000000
H     1.598000000    -4.037000000     4.621000000
H     0.027000000    -4.582000000     4.304000000
C     0.337000000    -2.349000000     4.444000000
C     1.306000000    -1.417000000     4.812000000
H     2.347000000    -1.635000000     5.033000000
C    -0.943000000    -1.974000000     4.147000000
C    -1.386000000    -0.697000000     4.400000000
H    -2.377000000    -0.439000000     4.037000000
C    -0.415000000     0.233000000     4.754000000
O    -0.798000000     1.537000000     4.720000000
C    -0.608000000     2.339000000     3.508000000
C    -1.798000000     3.207000000     3.102000000
C    -1.609000000     4.273000000     2.214000000
H    -0.638000000     4.479000000     1.772000000
C    -3.081000000     3.009000000     3.547000000
H    -3.217000000     2.094000000     4.118000000
O     0.617000000     3.190000000     3.713000000
H    -0.421000000     1.627000000     2.691000000
C     0.905000000    -0.113000000     4.983000000
C     1.947000000     0.980000000     5.209000000
H     2.796000000     0.551000000     5.745000000
H     1.458000000     1.622000000     5.944000000
C     2.418000000     1.634000000     3.897000000
C     3.555000000     1.122000000     3.187000000
H     4.087000000     0.263000000     3.587000000
C     1.726000000     2.645000000     3.214000000
C     2.169000000     3.172000000     2.068000000
H     1.637000000     3.988000000     1.587000000
C     3.305000000     2.659000000     1.433000000
O     3.598000000     3.170000000     0.168000000
C     3.149000000     2.462000000    -0.950000000
C     2.590000000     3.303000000    -2.089000000
C     2.107000000     4.608000000    -1.860000000
H     2.204000000     5.050000000    -0.872000000
C     2.308000000     2.779000000    -3.309000000
H     2.597000000     1.747000000    -3.493000000
O     4.279000000     1.691000000    -1.432000000
H     2.362000000     1.885000000    -0.442000000
C     4.007000000     1.625000000     2.009000000
C     5.231000000     1.071000000     1.296000000
H     5.895000000     0.545000000     1.985000000
H     5.810000000     1.871000000     0.830000000
C     4.863000000     0.040000000     0.277000000
C     4.513000000     0.389000000    -1.045000000
C     4.093000000    -0.568000000    -1.922000000
H     3.883000000    -0.271000000    -2.946000000
C     4.002000000    -1.884000000    -1.484000000
O     3.537000000    -2.808000000    -2.365000000
C     2.195000000    -3.287000000    -2.234000000
H     1.645000000    -2.575000000    -1.601000000
C     1.410000000    -3.433000000    -3.579000000
C     0.436000000    -4.387000000    -3.779000000
H     0.337000000    -5.143000000    -3.005000000
C     1.715000000    -2.501000000    -4.583000000
H     2.388000000    -1.658000000    -4.448000000
C     0.948000000    -2.477000000    -5.778000000
O     1.186000000    -1.515000000    -6.716000000
C    -0.079000000    -3.409000000    -5.986000000
H    -0.712000000    -3.259000000    -6.857000000
C    -0.409000000    -4.281000000    -4.914000000
O    -1.393000000    -5.249000000    -5.095000000
C    -2.311000000    -5.494000000    -4.100000000
C    -3.219000000    -4.478000000    -3.742000000
H    -3.167000000    -3.508000000    -4.229000000
C    -2.364000000    -6.680000000    -3.339000000
H    -1.642000000    -7.452000000    -3.591000000
C    -3.154000000    -6.884000000    -2.250000000
H    -3.109000000    -7.777000000    -1.632000000
C    -3.960000000    -5.796000000    -1.846000000
H    -4.651000000    -5.885000000    -1.012000000
C    -3.962000000    -4.615000000    -2.563000000
O    -4.634000000    -3.511000000    -2.134000000
C    -4.359000000    -2.998000000    -0.821000000
C    -5.286000000    -2.101000000    -0.296000000
H    -6.142000000    -1.829000000    -0.909000000
C    -5.161000000    -1.706000000     1.009000000
O    -6.175000000    -0.892000000     1.474000000
C    -6.173000000    -0.038000000     2.541000000
C    -5.780000000     1.272000000     2.440000000
H    -5.633000000     1.641000000     1.428000000
C    -6.630000000    -0.477000000     3.778000000
H    -7.014000000    -1.493000000     3.808000000
C    -6.650000000     0.263000000     4.893000000
H    -7.072000000    -0.135000000     5.813000000
C    -6.359000000     1.605000000     4.743000000
H    -6.377000000     2.251000000     5.618000000
C    -5.842000000     2.151000000     3.575000000
O    -5.439000000     3.470000000     3.530000000
C    -4.181000000     3.703000000     3.059000000
C    -3.989000000     4.624000000     2.030000000
H    -4.844000000     5.180000000     1.654000000
C    -2.714000000     5.036000000     1.706000000
O    -2.563000000     5.997000000     0.763000000
C    -1.341000000     6.565000000     0.456000000
C    -0.809000000     6.303000000    -0.823000000
H    -1.320000000     5.682000000    -1.554000000
C    -0.654000000     7.341000000     1.389000000
H    -0.950000000     7.482000000     2.425000000
C     0.549000000     7.915000000     1.013000000
H     1.011000000     8.647000000     1.670000000
C     1.086000000     7.703000000    -0.205000000
H     2.015000000     8.110000000    -0.595000000
C     0.368000000     6.927000000    -1.108000000
O     0.890000000     6.662000000    -2.353000000
C     1.342000000     5.379000000    -2.692000000
C     1.045000000     4.860000000    -3.925000000
H     0.414000000     5.386000000    -4.636000000
C     1.618000000     3.582000000    -4.258000000
O     1.473000000     3.137000000    -5.573000000
C     2.033000000     2.028000000    -6.071000000
C     3.397000000     1.984000000    -6.355000000
H     3.928000000     2.932000000    -6.343000000
C     3.989000000     0.773000000    -6.654000000
H     5.051000000     0.754000000    -6.881000000
C     3.216000000    -0.358000000    -6.857000000
H     3.590000000    -1.298000000    -7.254000000
C     1.840000000    -0.327000000    -6.522000000
C     1.244000000     0.845000000    -6.166000000
H     0.176000000     1.001000000    -6.034000000
C    -2.587000000     1.084000000     0.292000000
H    -3.579000000     0.929000000     0.708000000
C    -1.561000000     0.372000000     0.865000000
H    -1.776000000    -0.227000000     1.747000000
C    -0.328000000     0.301000000     0.250000000
H     0.446000000    -0.311000000     0.645000000
C    -0.087000000     0.965000000    -0.946000000
H     0.862000000     0.795000000    -1.448000000
C    -1.055000000     1.832000000    -1.407000000
H    -0.880000000     2.360000000    -2.340000000
C    -2.368000000     1.836000000    -0.855000000
C    -3.549000000     2.633000000    -1.442000000
O    -3.456000000     3.237000000    -2.500000000
O    -4.636000000     2.620000000    -0.902000000
O    -3.091000000     1.558000000    -4.483000000
H    -3.201000000     2.186000000    -3.769000000
H    -3.811000000     1.752000000    -5.084000000
O    -1.208000000     4.002000000    -6.290000000
H    -1.179000000     3.154000000    -5.847000000
H    -1.794000000     4.534000000    -5.751000000
O    -2.355000000     6.769000000    -6.470000000
H    -1.777000000     7.523000000    -6.351000000
H    -2.474000000     6.417000000    -5.588000000
O    -6.372000000     0.642000000    -1.705000000
H    -6.493000000     0.051000000    -0.962000000
H    -5.783000000     1.322000000    -1.378000000
O    -5.533000000     8.450000000     0.696000000
H    -5.953000000     7.686000000     1.091000000
H    -5.162000000     8.930000000     1.436000000
O    -7.518000000    -0.556000000    -3.993000000
H    -7.257000000    -0.158000000    -3.163000000
H    -6.932000000    -1.306000000    -4.095000000
O    -3.534000000     8.299000000    -1.408000000
H    -3.383000000     7.378000000    -1.619000000
H    -4.202000000     8.282000000    -0.722000000
O    -5.014000000    -0.724000000    -6.286000000
H    -5.529000000     0.003000000    -6.634000000
H    -5.633000000    -1.453000000    -6.236000000
O    -6.711000000     4.018000000    -0.286000000
H    -6.762000000     4.722000000    -0.933000000
H    -5.872000000     3.592000000    -0.462000000
O    -2.794000000     4.999000000    -4.354000000
H    -3.550000000     5.568000000    -4.210000000
H    -2.947000000     4.248000000    -3.780000000
O    -2.147000000    -0.605000000    -5.994000000
H    -2.147000000     0.142000000    -5.395000000
H    -3.022000000    -0.981000000    -5.906000000
O    -7.947000000     4.663000000    -6.195000000
H    -7.164000000     4.726000000    -6.740000000
H    -7.741000000     3.979000000    -5.558000000
O    -7.278000000     6.157000000     1.464000000
H    -7.880000000     6.450000000     0.780000000
H    -7.031000000     5.270000000     1.203000000
O    -6.395000000     3.400000000    -3.693000000
H    -7.111000000     3.917000000    -3.325000000
H    -5.933000000     3.052000000    -2.930000000
O    -4.562000000     5.548000000    -1.396000000
H    -4.173000000     5.384000000    -0.537000000
H    -4.432000000     4.731000000    -1.878000000
O    -7.197000000     5.871000000    -2.402000000
H    -7.486000000     6.509000000    -1.750000000
H    -6.430000000     6.274000000    -2.808000000
O    -8.826000000    -0.388000000     0.503000000
H    -8.865000000     0.562000000     0.615000000
H    -8.232000000    -0.686000000     1.193000000
O    -6.940000000     1.891000000    -5.773000000
H    -6.655000000     2.287000000    -4.950000000
H    -7.808000000     1.536000000    -5.580000000
O    -8.867000000     2.293000000     0.578000000
H    -8.036000000     2.750000000     0.448000000
H    -9.109000000     2.489000000     1.484000000
