215
-1451.56133
C    -3.384000000    -0.915000000     4.071000000
H    -2.749000000    -0.712000000     4.930000000
C    -2.779000000    -1.744000000     3.113000000
C    -3.479000000    -2.110000000     1.953000000
H    -2.988000000    -2.728000000     1.206000000
C    -1.329000000    -2.189000000     3.201000000
O    -0.914000000    -1.931000000     4.551000000
H    -0.848000000    -1.535000000     2.459000000
O    -1.082000000    -3.591000000     2.901000000
C    -0.018000000    -3.873000000     2.124000000
C    -0.282000000    -4.331000000     0.906000000
H    -1.281000000    -4.202000000     0.495000000
C     0.685000000    -4.776000000     0.089000000
O     0.283000000    -5.028000000    -1.214000000
C     2.009000000    -4.632000000     0.544000000
C     3.164000000    -4.851000000    -0.373000000
H     4.015000000    -5.230000000     0.196000000
C     3.395000000    -3.510000000    -1.148000000
C     4.242000000    -2.582000000    -0.624000000
H     4.829000000    -2.861000000     0.248000000
H     2.963000000    -5.662000000    -1.076000000
C     2.251000000    -4.236000000     1.843000000
H     3.287000000    -4.156000000     2.164000000
C     1.289000000    -3.881000000     2.688000000
C     1.580000000    -3.373000000     4.105000000
H     2.492000000    -3.825000000     4.501000000
H     0.828000000    -3.812000000     4.765000000
C     1.462000000    -1.843000000     4.328000000
C     2.673000000    -1.117000000     4.109000000
H     3.621000000    -1.600000000     3.890000000
C     0.287000000    -1.226000000     4.672000000
C     0.249000000     0.179000000     4.692000000
H    -0.713000000     0.684000000     4.729000000
C     1.442000000     0.885000000     4.493000000
O     1.360000000     2.270000000     4.420000000
C     1.470000000     2.752000000     3.058000000
C     0.349000000     3.769000000     2.806000000
C     0.519000000     4.731000000     1.782000000
H     1.440000000     4.799000000     1.209000000
C    -0.897000000     3.757000000     3.560000000
H    -1.019000000     3.011000000     4.341000000
O     2.748000000     3.296000000     2.888000000
H     1.327000000     1.862000000     2.427000000
C     2.672000000     0.286000000     4.309000000
C     3.987000000     1.018000000     4.035000000
H     4.841000000     0.436000000     4.390000000
H     4.023000000     1.938000000     4.621000000
C     4.173000000     1.373000000     2.576000000
C     4.856000000     0.484000000     1.735000000
H     5.285000000    -0.381000000     2.235000000
C     3.558000000     2.462000000     2.065000000
C     3.494000000     2.636000000     0.690000000
H     2.827000000     3.387000000     0.275000000
C     4.176000000     1.779000000    -0.186000000
O     4.052000000     1.993000000    -1.581000000
C     3.051000000     1.310000000    -2.228000000
C     2.330000000     2.107000000    -3.290000000
C     2.044000000     3.414000000    -3.051000000
H     2.522000000     3.885000000    -2.195000000
C     1.852000000     1.474000000    -4.483000000
H     2.029000000     0.409000000    -4.612000000
O     3.706000000     0.233000000    -2.900000000
H     2.299000000     0.839000000    -1.579000000
C     4.781000000     0.626000000     0.347000000
C     5.362000000    -0.329000000    -0.583000000
H     6.028000000    -0.922000000     0.047000000
H     5.949000000     0.266000000    -1.286000000
C     4.386000000    -1.341000000    -1.220000000
C     3.613000000    -0.969000000    -2.355000000
C     2.727000000    -1.947000000    -2.884000000
H     2.175000000    -1.762000000    -3.802000000
C     2.610000000    -3.144000000    -2.275000000
O     1.610000000    -3.883000000    -2.711000000
C     0.281000000    -3.846000000    -2.089000000
H     0.234000000    -2.936000000    -1.472000000
C    -0.824000000    -3.874000000    -3.073000000
C    -2.085000000    -4.055000000    -2.653000000
H    -2.180000000    -4.424000000    -1.634000000
C    -0.650000000    -3.449000000    -4.358000000
H     0.331000000    -3.181000000    -4.741000000
C    -1.703000000    -3.301000000    -5.270000000
O    -1.464000000    -2.938000000    -6.582000000
C    -2.982000000    -3.760000000    -4.926000000
H    -3.790000000    -3.938000000    -5.632000000
C    -3.110000000    -4.089000000    -3.571000000
O    -4.359000000    -4.583000000    -3.182000000
C    -4.974000000    -4.387000000    -1.975000000
C    -4.860000000    -3.157000000    -1.317000000
H    -4.387000000    -2.337000000    -1.852000000
C    -5.649000000    -5.484000000    -1.358000000
H    -5.712000000    -6.469000000    -1.815000000
C    -6.298000000    -5.170000000    -0.147000000
H    -6.913000000    -5.926000000     0.334000000
C    -6.319000000    -3.952000000     0.461000000
H    -6.849000000    -3.907000000     1.409000000
C    -5.508000000    -2.959000000    -0.125000000
O    -5.413000000    -1.719000000     0.453000000
C    -4.679000000    -1.436000000     1.620000000
C    -5.185000000    -0.552000000     2.559000000
H    -6.193000000    -0.152000000     2.481000000
C    -4.619000000    -0.344000000     3.799000000
O    -5.234000000     0.501000000     4.706000000
C    -4.814000000     1.739000000     5.042000000
C    -4.065000000     2.493000000     4.187000000
H    -3.679000000     2.130000000     3.237000000
C    -5.245000000     2.169000000     6.251000000
H    -5.902000000     1.630000000     6.929000000
C    -4.860000000     3.387000000     6.700000000
H    -5.268000000     3.797000000     7.621000000
C    -4.069000000     4.213000000     5.878000000
H    -3.756000000     5.223000000     6.130000000
C    -3.693000000     3.711000000     4.601000000
O    -3.168000000     4.602000000     3.701000000
C    -1.969000000     4.539000000     3.105000000
C    -1.716000000     5.474000000     2.092000000
H    -2.522000000     6.179000000     1.905000000
C    -0.512000000     5.632000000     1.469000000
O    -0.368000000     6.691000000     0.587000000
C     0.565000000     6.771000000    -0.424000000
C     0.425000000     5.987000000    -1.512000000
H    -0.361000000     5.239000000    -1.452000000
C     1.639000000     7.683000000    -0.404000000
H     1.618000000     8.396000000     0.416000000
C     2.532000000     7.802000000    -1.414000000
H     3.198000000     8.661000000    -1.407000000
C     2.309000000     7.127000000    -2.598000000
H     2.850000000     7.282000000    -3.528000000
C     1.299000000     6.146000000    -2.629000000
O     1.045000000     5.425000000    -3.781000000
C     1.296000000     4.082000000    -3.978000000
C     0.674000000     3.430000000    -5.066000000
H     0.143000000     4.079000000    -5.759000000
C     0.927000000     2.120000000    -5.314000000
O     0.308000000     1.559000000    -6.377000000
C     0.416000000     0.258000000    -6.790000000
C     1.525000000    -0.139000000    -7.564000000
H     2.322000000     0.554000000    -7.824000000
C     1.555000000    -1.409000000    -8.097000000
H     2.351000000    -1.644000000    -8.799000000
C     0.543000000    -2.331000000    -7.824000000
H     0.516000000    -3.340000000    -8.227000000
C    -0.535000000    -1.966000000    -7.005000000
C    -0.547000000    -0.739000000    -6.454000000
H    -1.402000000    -0.420000000    -5.864000000
C    -1.876000000     1.370000000     0.402000000
H    -2.543000000     1.878000000     1.094000000
C    -0.675000000     0.859000000     0.944000000
H    -0.541000000     0.902000000     2.022000000
C     0.196000000     0.198000000     0.138000000
H     1.083000000    -0.367000000     0.545000000
C    -0.031000000     0.056000000    -1.242000000
H     0.688000000    -0.500000000    -1.839000000
C    -1.193000000     0.486000000    -1.782000000
H    -1.361000000     0.446000000    -2.855000000
C    -2.144000000     1.130000000    -0.926000000
C    -3.313000000     1.810000000    -1.545000000
O    -3.646000000     1.520000000    -2.669000000
O    -3.937000000     2.706000000    -0.928000000
O    -6.484000000     1.520000000    -1.547000000
H    -5.549000000     1.489000000    -1.751000000
H    -6.718000000     2.444000000    -1.638000000
O    -3.462000000     7.477000000    -0.867000000
H    -2.740000000     8.064000000    -0.640000000
H    -3.405000000     6.769000000    -0.226000000
O    -7.340000000     1.645000000    -4.978000000
H    -6.451000000     1.569000000    -5.323000000
H    -7.221000000     1.889000000    -4.060000000
O    -6.158000000     3.713000000    -7.064000000
H    -6.672000000     2.952000000    -6.794000000
H    -5.830000000     4.084000000    -6.245000000
O    -1.583000000     6.909000000    -4.001000000
H    -2.508000000     7.069000000    -4.189000000
H    -1.578000000     6.090000000    -3.506000000
O    -8.009000000    -2.874000000    -3.029000000
H    -8.512000000    -2.718000000    -3.828000000
H    -7.153000000    -2.483000000    -3.204000000
O    -5.732000000    -1.377000000    -4.323000000
H    -4.937000000    -0.877000000    -4.504000000
H    -6.270000000    -0.788000000    -3.793000000
O    -8.554000000     2.502000000     0.481000000
H    -7.651000000     2.792000000     0.609000000
H    -8.498000000     1.546000000     0.462000000
O    -4.402000000     1.300000000    -5.092000000
H    -4.031000000     1.318000000    -4.209000000
H    -3.664000000     1.069000000    -5.657000000
O    -7.160000000     5.997000000    -0.718000000
H    -7.473000000     6.578000000    -1.411000000
H    -7.937000000     5.815000000    -0.189000000
O    -5.770000000     2.155000000     1.060000000
H    -5.044000000     2.342000000     0.465000000
H    -6.263000000     1.459000000     0.626000000
O    -3.310000000     4.592000000    -2.979000000
H    -3.738000000     3.772000000    -3.226000000
H    -3.208000000     4.533000000    -2.029000000
O    -4.936000000     7.069000000    -3.275000000
H    -4.059000000     6.864000000    -2.952000000
H    -5.142000000     7.919000000    -2.886000000
O    -3.200000000     4.931000000    -6.420000000
H    -3.045000000     4.602000000    -5.534000000
H    -4.016000000     5.427000000    -6.352000000
O    -6.468000000     4.244000000     2.992000000
H    -6.186000000     3.354000000     2.781000000
H    -5.738000000     4.798000000     2.717000000
O    -3.986000000     5.005000000     0.380000000
H    -4.890000000     5.240000000     0.170000000
H    -3.882000000     4.119000000     0.034000000
O    -6.185000000     5.153000000    -4.709000000
H    -5.650000000     5.708000000    -4.141000000
H    -6.675000000     5.770000000    -5.253000000
O    -8.148000000    -0.336000000     0.609000000
H    -7.411000000    -0.518000000     0.025000000
H    -8.868000000    -0.858000000     0.255000000
O    -7.578000000     3.800000000    -2.370000000
H    -6.943000000     3.841000000    -3.085000000
H    -7.406000000     4.586000000    -1.851000000
