215
-1442.59421
C    -3.370000000    -1.560000000     3.469000000
H    -2.894000000    -0.919000000     4.207000000
C    -2.623000000    -2.636000000     2.938000000
C    -3.309000000    -3.650000000     2.181000000
H    -2.803000000    -4.447000000     1.642000000
C    -1.133000000    -2.747000000     3.127000000
O    -0.652000000    -2.236000000     4.435000000
H    -0.672000000    -2.179000000     2.306000000
O    -0.646000000    -4.078000000     3.041000000
C     0.428000000    -4.319000000     2.246000000
C     0.178000000    -4.678000000     0.933000000
H    -0.775000000    -5.170000000     0.753000000
C     1.209000000    -4.488000000    -0.048000000
O     0.879000000    -4.703000000    -1.402000000
C     2.467000000    -4.093000000     0.343000000
C     3.539000000    -4.192000000    -0.647000000
H     4.439000000    -4.487000000    -0.102000000
C     3.672000000    -2.863000000    -1.268000000
C     4.502000000    -1.895000000    -0.700000000
H     5.047000000    -2.082000000     0.223000000
H     3.418000000    -5.012000000    -1.357000000
C     2.639000000    -3.565000000     1.629000000
H     3.620000000    -3.152000000     1.850000000
C     1.663000000    -3.775000000     2.614000000
C     1.918000000    -3.357000000     4.138000000
H     2.954000000    -3.528000000     4.440000000
H     1.260000000    -3.915000000     4.806000000
C     1.685000000    -1.829000000     4.354000000
C     2.752000000    -0.859000000     4.249000000
H     3.721000000    -1.259000000     3.961000000
C     0.406000000    -1.345000000     4.430000000
C     0.149000000     0.009000000     4.463000000
H    -0.865000000     0.385000000     4.578000000
C     1.191000000     0.942000000     4.334000000
O     0.860000000     2.298000000     4.257000000
C     0.960000000     2.954000000     3.016000000
C    -0.295000000     3.857000000     2.874000000
C    -0.244000000     5.134000000     2.303000000
H     0.724000000     5.467000000     1.937000000
C    -1.584000000     3.433000000     3.326000000
H    -1.604000000     2.443000000     3.774000000
O     2.277000000     3.585000000     2.859000000
H     0.740000000     2.176000000     2.270000000
C     2.495000000     0.483000000     4.228000000
C     3.648000000     1.450000000     3.924000000
H     4.550000000     0.957000000     4.294000000
H     3.532000000     2.274000000     4.632000000
C     3.806000000     1.907000000     2.471000000
C     4.537000000     1.127000000     1.594000000
H     5.060000000     0.236000000     1.932000000
C     3.224000000     3.043000000     1.997000000
C     3.165000000     3.352000000     0.637000000
H     2.466000000     4.099000000     0.272000000
C     3.922000000     2.542000000    -0.243000000
O     3.832000000     2.916000000    -1.561000000
C     2.995000000     1.935000000    -2.272000000
C     2.040000000     2.688000000    -3.206000000
C     1.417000000     3.852000000    -2.689000000
H     1.585000000     4.156000000    -1.659000000
C     1.691000000     2.190000000    -4.468000000
H     2.125000000     1.252000000    -4.804000000
O     3.843000000     0.963000000    -3.002000000
H     2.391000000     1.340000000    -1.571000000
C     4.645000000     1.435000000     0.238000000
C     5.408000000     0.431000000    -0.588000000
H     6.246000000     0.092000000     0.026000000
H     5.839000000     1.069000000    -1.362000000
C     4.569000000    -0.600000000    -1.251000000
C     3.914000000    -0.327000000    -2.484000000
C     3.158000000    -1.327000000    -3.090000000
H     2.681000000    -1.110000000    -4.042000000
C     3.017000000    -2.566000000    -2.455000000
O     2.131000000    -3.409000000    -3.016000000
C     0.883000000    -3.534000000    -2.289000000
H     0.791000000    -2.659000000    -1.629000000
C    -0.305000000    -3.553000000    -3.170000000
C    -1.557000000    -3.603000000    -2.615000000
H    -1.724000000    -3.610000000    -1.541000000
C    -0.114000000    -3.121000000    -4.488000000
H     0.861000000    -2.896000000    -4.914000000
C    -1.158000000    -2.918000000    -5.379000000
O    -0.929000000    -2.393000000    -6.597000000
C    -2.415000000    -3.028000000    -4.870000000
H    -3.236000000    -2.922000000    -5.574000000
C    -2.653000000    -3.341000000    -3.503000000
O    -3.951000000    -3.427000000    -3.112000000
C    -4.444000000    -4.408000000    -2.214000000
C    -4.688000000    -3.981000000    -0.950000000
H    -4.556000000    -2.957000000    -0.610000000
C    -4.465000000    -5.764000000    -2.635000000
H    -4.338000000    -6.051000000    -3.676000000
C    -4.872000000    -6.674000000    -1.683000000
H    -4.956000000    -7.711000000    -2.000000000
C    -5.206000000    -6.213000000    -0.371000000
H    -5.414000000    -6.953000000     0.397000000
C    -5.104000000    -4.857000000    -0.002000000
O    -5.402000000    -4.433000000     1.255000000
C    -4.679000000    -3.440000000     1.933000000
C    -5.351000000    -2.338000000     2.449000000
H    -6.415000000    -2.247000000     2.248000000
C    -4.715000000    -1.491000000     3.306000000
O    -5.557000000    -0.506000000     3.827000000
C    -5.074000000     0.610000000     4.554000000
C    -4.601000000     1.739000000     3.843000000
H    -4.576000000     1.642000000     2.761000000
C    -5.042000000     0.572000000     5.963000000
H    -5.353000000    -0.362000000     6.424000000
C    -4.727000000     1.779000000     6.615000000
H    -4.594000000     1.791000000     7.694000000
C    -4.292000000     2.832000000     5.863000000
H    -4.045000000     3.725000000     6.433000000
C    -4.217000000     2.837000000     4.509000000
O    -3.954000000     3.990000000     3.806000000
C    -2.691000000     4.312000000     3.318000000
C    -2.622000000     5.548000000     2.643000000
H    -3.484000000     6.209000000     2.677000000
C    -1.393000000     5.956000000     2.157000000
O    -1.262000000     7.035000000     1.387000000
C    -0.476000000     7.213000000     0.302000000
C    -0.770000000     6.481000000    -0.855000000
H    -1.771000000     6.063000000    -0.930000000
C     0.811000000     7.708000000     0.457000000
H     1.126000000     8.186000000     1.381000000
C     1.792000000     7.389000000    -0.469000000
H     2.836000000     7.644000000    -0.308000000
C     1.429000000     6.883000000    -1.689000000
H     2.175000000     6.649000000    -2.444000000
C     0.157000000     6.331000000    -1.854000000
O    -0.176000000     5.664000000    -3.017000000
C     0.520000000     4.523000000    -3.515000000
C     0.163000000     4.014000000    -4.703000000
H    -0.673000000     4.541000000    -5.157000000
C     0.722000000     2.867000000    -5.214000000
O     0.207000000     2.345000000    -6.403000000
C     0.483000000     1.030000000    -6.825000000
C     1.724000000     0.631000000    -7.454000000
H     2.475000000     1.405000000    -7.591000000
C     1.942000000    -0.609000000    -7.924000000
H     2.859000000    -0.897000000    -8.432000000
C     1.013000000    -1.609000000    -7.634000000
H     1.210000000    -2.646000000    -7.896000000
C    -0.152000000    -1.299000000    -6.903000000
C    -0.401000000    -0.001000000    -6.463000000
H    -1.319000000     0.228000000    -5.929000000
C    -2.178000000     1.751000000     0.426000000
H    -2.958000000     2.112000000     1.092000000
C    -1.075000000     1.068000000     0.977000000
H    -1.024000000     0.956000000     2.057000000
C    -0.151000000     0.497000000     0.127000000
H     0.688000000    -0.012000000     0.508000000
C    -0.267000000     0.686000000    -1.240000000
H     0.413000000     0.241000000    -1.962000000
C    -1.358000000     1.403000000    -1.836000000
H    -1.573000000     1.473000000    -2.899000000
C    -2.263000000     2.033000000    -0.946000000
C    -3.368000000     2.935000000    -1.449000000
O    -3.391000000     3.195000000    -2.652000000
O    -4.223000000     3.308000000    -0.711000000
O    -7.498000000     2.900000000    -2.446000000
H    -7.202000000     2.341000000    -1.728000000
H    -6.843000000     3.597000000    -2.493000000
O    -6.710000000     5.671000000     1.957000000
H    -7.610000000     5.345000000     1.946000000
H    -6.797000000     6.620000000     1.868000000
O    -5.169000000     7.412000000    -2.919000000
H    -4.641000000     7.727000000    -3.653000000
H    -4.679000000     7.679000000    -2.141000000
O    -4.022000000     8.229000000    -0.636000000
H    -4.062000000     8.828000000     0.110000000
H    -4.106000000     7.358000000    -0.249000000
O    -5.167000000     1.387000000    -6.751000000
H    -4.504000000     2.021000000    -7.025000000
H    -5.214000000     0.762000000    -7.474000000
O    -2.042000000     8.176000000    -3.311000000
H    -1.741000000     8.148000000    -2.403000000
H    -1.252000000     8.025000000    -3.831000000
O    -5.417000000    -0.931000000    -1.893000000
H    -5.207000000    -0.329000000    -2.607000000
H    -4.645000000    -1.492000000    -1.817000000
O    -2.591000000    -1.374000000    -0.038000000
H    -3.028000000    -0.911000000     0.676000000
H    -2.004000000    -0.723000000    -0.422000000
O    -7.587000000     1.467000000     2.491000000
H    -6.891000000     0.811000000     2.535000000
H    -7.570000000     1.774000000     1.584000000
O    -8.957000000     0.690000000    -3.030000000
H    -8.541000000     1.489000000    -2.706000000
H    -8.499000000     0.496000000    -3.848000000
O    -6.769000000    -2.126000000    -3.891000000
H    -7.119000000    -1.591000000    -4.604000000
H    -6.376000000    -1.495000000    -3.289000000
O    -4.685000000     0.903000000    -3.858000000
H    -4.404000000     1.747000000    -3.503000000
H    -4.597000000     1.002000000    -4.806000000
O    -6.386000000     1.619000000    -0.217000000
H    -5.813000000     0.987000000    -0.650000000
H    -5.948000000     2.461000000    -0.337000000
O    -4.165000000     6.331000000    -6.303000000
H    -3.781000000     6.067000000    -5.467000000
H    -5.067000000     6.014000000    -6.263000000
O    -3.001000000     5.292000000    -4.233000000
H    -2.387000000     5.856000000    -3.762000000
H    -3.056000000     4.499000000    -3.700000000
O    -2.638000000     3.067000000    -6.890000000
H    -1.878000000     2.511000000    -6.719000000
H    -2.377000000     3.933000000    -6.578000000
O    -4.551000000     5.785000000     0.152000000
H    -4.447000000     4.863000000    -0.082000000
H    -4.953000000     5.768000000     1.021000000
O    -5.656000000     4.692000000    -3.045000000
H    -5.359000000     5.571000000    -2.811000000
H    -4.871000000     4.148000000    -2.976000000
O    -6.801000000     5.319000000    -5.566000000
H    -6.558000000     4.838000000    -4.774000000
H    -7.010000000     4.638000000    -6.205000000
