215
-1434.98029
C    -4.404000000    -1.047000000     3.205000000
H    -4.002000000    -0.696000000     4.152000000
C    -3.729000000    -1.934000000     2.352000000
C    -4.248000000    -2.311000000     1.141000000
H    -3.834000000    -3.061000000     0.472000000
C    -2.306000000    -2.449000000     2.773000000
O    -2.079000000    -2.342000000     4.171000000
H    -1.647000000    -1.792000000     2.185000000
O    -2.184000000    -3.811000000     2.352000000
C    -0.980000000    -4.222000000     1.777000000
C    -0.983000000    -4.282000000     0.368000000
H    -1.919000000    -4.169000000    -0.173000000
C     0.186000000    -4.544000000    -0.303000000
O     0.050000000    -4.556000000    -1.697000000
C     1.405000000    -4.702000000     0.364000000
C     2.719000000    -4.860000000    -0.357000000
H     3.552000000    -5.314000000     0.184000000
C     3.263000000    -3.550000000    -0.936000000
C     4.208000000    -2.849000000    -0.202000000
H     4.463000000    -3.153000000     0.810000000
H     2.482000000    -5.536000000    -1.180000000
C     1.425000000    -4.512000000     1.746000000
H     2.353000000    -4.573000000     2.308000000
C     0.263000000    -4.316000000     2.451000000
C     0.315000000    -4.109000000     3.993000000
H     1.193000000    -4.596000000     4.423000000
H    -0.570000000    -4.536000000     4.469000000
C     0.361000000    -2.611000000     4.351000000
C     1.556000000    -2.004000000     4.380000000
H     2.456000000    -2.578000000     4.178000000
C    -0.842000000    -1.841000000     4.430000000
C    -0.726000000    -0.497000000     4.492000000
H    -1.599000000     0.147000000     4.424000000
C     0.506000000     0.133000000     4.562000000
O     0.559000000     1.532000000     4.634000000
C     1.024000000     2.262000000     3.447000000
C     0.127000000     3.465000000     3.247000000
C     0.749000000     4.662000000     2.753000000
H     1.826000000     4.785000000     2.666000000
C    -1.276000000     3.454000000     3.389000000
H    -1.791000000     2.561000000     3.735000000
O     2.471000000     2.560000000     3.625000000
H     0.820000000     1.506000000     2.675000000
C     1.692000000    -0.632000000     4.546000000
C     3.102000000     0.016000000     4.643000000
H     3.751000000    -0.705000000     5.144000000
H     3.149000000     0.728000000     5.470000000
C     3.553000000     0.511000000     3.275000000
C     4.405000000    -0.207000000     2.427000000
H     4.701000000    -1.177000000     2.819000000
C     3.132000000     1.770000000     2.816000000
C     3.412000000     2.107000000     1.494000000
H     3.149000000     3.094000000     1.123000000
C     4.068000000     1.253000000     0.637000000
O     4.259000000     1.754000000    -0.644000000
C     3.487000000     1.230000000    -1.678000000
C     2.934000000     2.302000000    -2.598000000
C     2.919000000     3.624000000    -2.183000000
H     3.358000000     3.862000000    -1.217000000
C     2.385000000     1.908000000    -3.824000000
H     2.441000000     0.916000000    -4.264000000
O     4.226000000     0.135000000    -2.336000000
H     2.580000000     0.899000000    -1.150000000
C     4.656000000     0.176000000     1.085000000
C     5.505000000    -0.732000000     0.198000000
H     6.168000000    -1.396000000     0.757000000
H     6.137000000    -0.101000000    -0.431000000
C     4.602000000    -1.553000000    -0.674000000
C     4.155000000    -1.176000000    -1.920000000
C     3.368000000    -1.998000000    -2.745000000
H     2.955000000    -1.759000000    -3.722000000
C     2.848000000    -3.157000000    -2.209000000
O     1.809000000    -3.731000000    -2.907000000
C     0.422000000    -3.470000000    -2.453000000
H     0.363000000    -2.577000000    -1.814000000
C    -0.502000000    -3.156000000    -3.636000000
C    -1.863000000    -3.415000000    -3.451000000
H    -2.284000000    -3.775000000    -2.516000000
C    -0.017000000    -2.595000000    -4.826000000
H     1.023000000    -2.282000000    -4.876000000
C    -0.860000000    -2.414000000    -5.900000000
O    -0.394000000    -2.001000000    -7.104000000
C    -2.228000000    -2.771000000    -5.730000000
H    -2.859000000    -2.820000000    -6.613000000
C    -2.749000000    -3.154000000    -4.519000000
O    -4.066000000    -3.555000000    -4.487000000
C    -4.727000000    -3.885000000    -3.331000000
C    -5.157000000    -2.836000000    -2.470000000
H    -5.034000000    -1.792000000    -2.746000000
C    -4.879000000    -5.181000000    -2.851000000
H    -4.445000000    -6.007000000    -3.408000000
C    -5.400000000    -5.486000000    -1.578000000
H    -5.496000000    -6.506000000    -1.214000000
C    -5.903000000    -4.464000000    -0.854000000
H    -6.434000000    -4.664000000     0.073000000
C    -5.765000000    -3.119000000    -1.264000000
O    -6.188000000    -2.148000000    -0.377000000
C    -5.477000000    -1.808000000     0.764000000
C    -6.028000000    -0.802000000     1.543000000
H    -6.966000000    -0.316000000     1.286000000
C    -5.508000000    -0.407000000     2.739000000
O    -6.115000000     0.442000000     3.548000000
C    -5.369000000     1.541000000     4.024000000
C    -4.623000000     2.347000000     3.129000000
H    -4.532000000     2.014000000     2.098000000
C    -5.627000000     1.961000000     5.329000000
H    -6.226000000     1.265000000     5.911000000
C    -5.135000000     3.173000000     5.757000000
H    -5.341000000     3.488000000     6.776000000
C    -4.470000000     4.058000000     4.910000000
H    -4.232000000     5.048000000     5.290000000
C    -4.177000000     3.616000000     3.618000000
O    -3.455000000     4.553000000     2.914000000
C    -2.077000000     4.510000000     2.865000000
C    -1.425000000     5.622000000     2.423000000
H    -1.964000000     6.516000000     2.117000000
C    -0.019000000     5.676000000     2.292000000
O     0.520000000     6.859000000     1.911000000
C     1.475000000     6.909000000     0.856000000
C     1.305000000     6.383000000    -0.408000000
H     0.384000000     5.858000000    -0.652000000
C     2.675000000     7.456000000     1.216000000
H     2.874000000     7.786000000     2.232000000
C     3.707000000     7.576000000     0.285000000
H     4.639000000     8.036000000     0.605000000
C     3.532000000     6.963000000    -0.933000000
H     4.280000000     6.987000000    -1.721000000
C     2.353000000     6.418000000    -1.317000000
O     2.271000000     5.904000000    -2.573000000
C     2.202000000     4.560000000    -2.899000000
C     1.557000000     4.160000000    -4.077000000
H     1.047000000     4.914000000    -4.671000000
C     1.746000000     2.902000000    -4.545000000
O     1.070000000     2.522000000    -5.691000000
C     1.240000000     1.368000000    -6.409000000
C     2.410000000     1.184000000    -7.088000000
H     3.101000000     2.021000000    -7.152000000
C     2.627000000     0.063000000    -7.868000000
H     3.503000000    -0.114000000    -8.488000000
C     1.641000000    -0.907000000    -7.963000000
H     1.798000000    -1.842000000    -8.495000000
C     0.412000000    -0.794000000    -7.248000000
C     0.275000000     0.335000000    -6.387000000
H    -0.553000000     0.455000000    -5.693000000
C    -1.641000000     1.915000000     0.280000000
H    -2.219000000     2.640000000     0.848000000
C    -1.023000000     0.828000000     0.847000000
H    -1.020000000     0.830000000     1.934000000
C    -0.136000000     0.089000000     0.077000000
H     0.464000000    -0.678000000     0.501000000
C     0.040000000     0.329000000    -1.286000000
H     0.899000000    -0.089000000    -1.805000000
C    -0.574000000     1.479000000    -1.860000000
H    -0.386000000     1.738000000    -2.898000000
C    -1.415000000     2.237000000    -1.082000000
C    -2.071000000     3.450000000    -1.689000000
O    -2.030000000     3.567000000    -2.875000000
O    -2.842000000     4.135000000    -1.052000000
O    -4.731000000     7.741000000     2.919000000
H    -4.578000000     8.344000000     2.191000000
H    -4.606000000     6.871000000     2.541000000
O    -2.074000000     6.678000000    -1.218000000
H    -1.943000000     6.804000000    -2.158000000
H    -2.199000000     5.734000000    -1.119000000
O    -8.094000000     0.303000000    -1.971000000
H    -7.179000000     0.453000000    -1.733000000
H    -8.290000000     0.986000000    -2.612000000
O     1.390000000     4.959000000    -7.790000000
H     0.659000000     4.585000000    -7.298000000
H     1.115000000     4.906000000    -8.705000000
O    -5.438000000     3.375000000    -0.837000000
H    -4.536000000     3.686000000    -0.765000000
H    -5.364000000     2.420000000    -0.833000000
O    -1.561000000     8.860000000     0.221000000
H    -0.774000000     9.076000000    -0.280000000
H    -1.764000000     7.959000000    -0.028000000
O    -6.337000000     7.849000000     0.331000000
H    -6.086000000     7.353000000    -0.449000000
H    -6.653000000     8.686000000    -0.009000000
O    -8.134000000     3.339000000    -0.702000000
H    -7.176000000     3.356000000    -0.698000000
H    -8.367000000     3.178000000    -1.616000000
O    -3.167000000    -0.129000000    -2.155000000
H    -2.285000000    -0.093000000    -1.786000000
H    -3.080000000     0.264000000    -3.024000000
O    -6.015000000     0.692000000    -4.929000000
H    -6.460000000    -0.156000000    -4.939000000
H    -5.260000000     0.559000000    -4.356000000
O    -3.090000000     1.595000000    -4.318000000
H    -2.773000000     2.309000000    -3.765000000
H    -2.848000000     1.855000000    -5.207000000
O    -0.935000000     6.999000000    -4.280000000
H    -0.208000000     7.321000000    -4.813000000
H    -0.999000000     6.069000000    -4.496000000
O    -4.540000000     5.095000000    -3.327000000
H    -5.114000000     4.368000000    -3.087000000
H    -3.728000000     4.927000000    -2.849000000
O    -4.685000000     5.235000000    -6.200000000
H    -4.824000000     5.334000000    -5.258000000
H    -3.763000000     4.989000000    -6.282000000
O    -0.676000000     9.572000000    -3.252000000
H    -1.023000000     8.680000000    -3.253000000
H    -0.209000000     9.647000000    -2.420000000
O    -1.494000000     4.256000000    -5.259000000
H    -1.470000000     3.393000000    -5.672000000
H    -1.643000000     4.074000000    -4.331000000
O    -2.567000000     2.315000000    -6.923000000
H    -3.515000000     2.197000000    -6.989000000
H    -2.215000000     1.848000000    -7.681000000
O    -5.454000000     0.583000000    -0.947000000
H    -5.824000000    -0.161000000    -0.472000000
H    -4.685000000     0.225000000    -1.390000000
O    -6.200000000     7.109000000    -2.311000000
H    -5.483000000     6.649000000    -2.748000000
H    -6.980000000     6.868000000    -2.811000000
