215
-1450.28662
C    -3.953000000    -1.715000000     2.278000000
H    -3.482000000    -0.972000000     2.917000000
C    -3.260000000    -2.869000000     1.896000000
C    -3.765000000    -3.667000000     0.844000000
H    -3.169000000    -4.500000000     0.481000000
C    -1.785000000    -3.109000000     2.391000000
O    -1.514000000    -2.779000000     3.765000000
H    -1.268000000    -2.411000000     1.716000000
O    -1.269000000    -4.413000000     2.066000000
C    -0.004000000    -4.475000000     1.425000000
C    -0.025000000    -4.627000000     0.084000000
H    -1.001000000    -4.675000000    -0.391000000
C     1.139000000    -4.440000000    -0.655000000
O     1.115000000    -4.387000000    -2.017000000
C     2.332000000    -4.217000000     0.013000000
C     3.645000000    -4.083000000    -0.723000000
H     4.394000000    -4.481000000    -0.035000000
C     3.998000000    -2.729000000    -1.139000000
C     4.657000000    -1.825000000    -0.239000000
H     5.085000000    -2.163000000     0.701000000
H     3.740000000    -4.689000000    -1.626000000
C     2.415000000    -4.116000000     1.380000000
H     3.350000000    -3.841000000     1.862000000
C     1.230000000    -4.295000000     2.122000000
C     1.245000000    -4.068000000     3.619000000
H     2.198000000    -4.358000000     4.065000000
H     0.490000000    -4.746000000     4.025000000
C     0.888000000    -2.675000000     4.114000000
C     1.931000000    -1.708000000     4.312000000
H     2.963000000    -2.047000000     4.334000000
C    -0.416000000    -2.145000000     4.148000000
C    -0.585000000    -0.827000000     4.571000000
H    -1.596000000    -0.432000000     4.639000000
C     0.431000000     0.086000000     4.728000000
O     0.080000000     1.393000000     5.077000000
C     0.337000000     2.384000000     4.071000000
C    -0.777000000     3.415000000     4.050000000
C    -0.579000000     4.693000000     3.490000000
H     0.406000000     4.947000000     3.107000000
C    -2.106000000     3.034000000     4.207000000
H    -2.450000000     2.029000000     4.436000000
O     1.650000000     2.874000000     4.074000000
H     0.253000000     1.905000000     3.085000000
C     1.706000000    -0.394000000     4.669000000
C     2.958000000     0.486000000     4.859000000
H     3.824000000    -0.083000000     5.202000000
H     2.717000000     1.189000000     5.659000000
C     3.277000000     1.194000000     3.491000000
C     4.265000000     0.658000000     2.658000000
H     4.732000000    -0.273000000     2.969000000
C     2.632000000     2.411000000     3.227000000
C     2.902000000     2.996000000     1.964000000
H     2.244000000     3.826000000     1.721000000
C     3.827000000     2.458000000     1.060000000
O     3.873000000     2.854000000    -0.243000000
C     3.141000000     2.207000000    -1.196000000
C     2.418000000     3.159000000    -2.096000000
C     1.443000000     4.004000000    -1.533000000
H     1.424000000     4.083000000    -0.449000000
C     2.523000000     2.988000000    -3.470000000
H     3.179000000     2.306000000    -4.005000000
O     4.021000000     1.420000000    -1.952000000
H     2.371000000     1.555000000    -0.757000000
C     4.540000000     1.271000000     1.445000000
C     5.422000000     0.510000000     0.454000000
H     6.097000000    -0.171000000     0.977000000
H     6.118000000     1.176000000    -0.060000000
C     4.698000000    -0.450000000    -0.549000000
C     4.101000000     0.079000000    -1.672000000
C     3.402000000    -0.772000000    -2.516000000
H     2.712000000    -0.457000000    -3.295000000
C     3.368000000    -2.147000000    -2.253000000
O     2.590000000    -2.926000000    -3.051000000
C     1.241000000    -3.028000000    -2.618000000
H     1.032000000    -2.359000000    -1.770000000
C     0.249000000    -2.840000000    -3.788000000
C    -0.810000000    -3.718000000    -3.962000000
H    -0.965000000    -4.579000000    -3.316000000
C     0.481000000    -1.861000000    -4.814000000
H     1.427000000    -1.330000000    -4.878000000
C    -0.400000000    -1.621000000    -5.868000000
O    -0.194000000    -0.641000000    -6.910000000
C    -1.581000000    -2.415000000    -5.956000000
H    -2.195000000    -2.375000000    -6.852000000
C    -1.732000000    -3.429000000    -4.984000000
O    -2.927000000    -4.067000000    -4.992000000
C    -3.424000000    -4.727000000    -3.837000000
C    -4.137000000    -4.024000000    -2.851000000
H    -4.195000000    -2.946000000    -2.976000000
C    -3.254000000    -6.107000000    -3.700000000
H    -2.655000000    -6.778000000    -4.311000000
C    -3.729000000    -6.772000000    -2.601000000
H    -3.581000000    -7.848000000    -2.569000000
C    -4.421000000    -6.124000000    -1.640000000
H    -4.760000000    -6.534000000    -0.692000000
C    -4.695000000    -4.734000000    -1.784000000
O    -5.480000000    -4.067000000    -0.850000000
C    -4.921000000    -3.303000000     0.219000000
C    -5.579000000    -2.091000000     0.517000000
H    -6.489000000    -1.780000000     0.012000000
C    -5.171000000    -1.368000000     1.678000000
O    -5.835000000    -0.211000000     1.931000000
C    -5.678000000     0.413000000     3.132000000
C    -5.242000000     1.696000000     3.190000000
H    -4.929000000     2.137000000     2.247000000
C    -5.822000000    -0.244000000     4.325000000
H    -6.244000000    -1.246000000     4.341000000
C    -5.501000000     0.347000000     5.565000000
H    -5.664000000    -0.132000000     6.527000000
C    -5.008000000     1.630000000     5.522000000
H    -4.785000000     2.097000000     6.478000000
C    -4.922000000     2.333000000     4.342000000
O    -4.442000000     3.600000000     4.289000000
C    -3.161000000     3.911000000     3.966000000
C    -2.956000000     5.223000000     3.477000000
H    -3.735000000     5.969000000     3.344000000
C    -1.623000000     5.585000000     3.233000000
O    -1.390000000     6.795000000     2.540000000
C    -0.458000000     6.798000000     1.479000000
C    -0.642000000     6.051000000     0.381000000
H    -1.481000000     5.366000000     0.296000000
C     0.593000000     7.731000000     1.524000000
H     0.712000000     8.350000000     2.410000000
C     1.335000000     7.969000000     0.376000000
H     2.028000000     8.806000000     0.429000000
C     1.101000000     7.295000000    -0.792000000
H     1.658000000     7.451000000    -1.712000000
C     0.093000000     6.309000000    -0.797000000
O    -0.222000000     5.707000000    -1.901000000
C     0.685000000     4.766000000    -2.403000000
C     0.753000000     4.604000000    -3.798000000
H     0.098000000     5.165000000    -4.459000000
C     1.692000000     3.713000000    -4.332000000
O     1.626000000     3.439000000    -5.692000000
C     1.829000000     2.269000000    -6.360000000
C     2.977000000     1.977000000    -7.097000000
H     3.876000000     2.585000000    -7.039000000
C     2.944000000     0.823000000    -7.868000000
H     3.847000000     0.555000000    -8.412000000
C     1.861000000    -0.002000000    -7.796000000
H     1.826000000    -0.843000000    -8.483000000
C     0.811000000     0.196000000    -6.963000000
C     0.800000000     1.378000000    -6.208000000
H    -0.097000000     1.713000000    -5.693000000
C    -1.811000000     1.848000000     0.260000000
H    -2.549000000     2.256000000     0.947000000
C    -0.961000000     0.794000000     0.717000000
H    -1.016000000     0.620000000     1.788000000
C     0.004000000     0.272000000    -0.081000000
H     0.753000000    -0.468000000     0.248000000
C     0.091000000     0.735000000    -1.404000000
H     0.798000000     0.272000000    -2.088000000
C    -0.794000000     1.761000000    -1.844000000
H    -0.620000000     2.178000000    -2.833000000
C    -1.761000000     2.340000000    -0.990000000
C    -2.761000000     3.346000000    -1.509000000
O    -2.752000000     3.600000000    -2.714000000
O    -3.686000000     3.691000000    -0.875000000
O    -6.887000000     2.787000000    -5.110000000
H    -6.274000000     2.241000000    -5.601000000
H    -6.336000000     3.280000000    -4.502000000
O    -2.862000000     8.409000000    -0.277000000
H    -2.224000000     8.994000000    -0.685000000
H    -2.882000000     8.679000000     0.641000000
O    -4.897000000     1.307000000    -6.267000000
H    -4.976000000     0.424000000    -5.905000000
H    -4.223000000     1.726000000    -5.732000000
O    -7.377000000     5.471000000    -1.686000000
H    -6.740000000     6.187000000    -1.685000000
H    -7.998000000     5.702000000    -0.995000000
O    -3.475000000    -0.754000000    -1.294000000
H    -3.165000000    -0.345000000    -2.102000000
H    -2.677000000    -1.032000000    -0.845000000
O    -5.287000000     6.381000000    -5.073000000
H    -4.609000000     6.958000000    -4.721000000
H    -5.295000000     5.630000000    -4.479000000
O    -6.730000000     5.903000000     1.780000000
H    -6.295000000     6.048000000     0.940000000
H    -7.270000000     5.125000000     1.640000000
O    -3.570000000     8.262000000    -4.260000000
H    -2.971000000     7.630000000    -3.861000000
H    -2.999000000     8.950000000    -4.603000000
O    -5.863000000    -0.259000000    -2.326000000
H    -6.265000000     0.396000000    -1.756000000
H    -5.087000000    -0.550000000    -1.847000000
O    -1.867000000     5.073000000    -6.374000000
H    -1.942000000     5.847000000    -5.814000000
H    -2.501000000     5.223000000    -7.075000000
O    -5.857000000     9.100000000    -1.106000000
H    -6.028000000     8.998000000    -2.042000000
H    -4.973000000     8.752000000    -0.985000000
O    -4.735000000     5.994000000    -0.411000000
H    -4.036000000     6.647000000    -0.439000000
H    -4.295000000     5.164000000    -0.598000000
O    -2.409000000     5.946000000    -3.463000000
H    -1.574000000     6.202000000    -3.072000000
H    -2.575000000     5.068000000    -3.120000000
O    -2.697000000     2.511000000    -5.062000000
H    -2.527000000     2.731000000    -4.146000000
H    -2.399000000     3.278000000    -5.551000000
O    -8.050000000     1.063000000     0.071000000
H    -7.863000000     1.075000000    -0.868000000
H    -7.324000000     1.547000000     0.466000000
O    -2.601000000    -0.079000000    -3.829000000
H    -3.259000000    -0.510000000    -4.375000000
H    -2.353000000     0.702000000    -4.324000000
O    -6.334000000     3.023000000     0.104000000
H    -7.000000000     3.480000000    -0.409000000
H    -5.518000000     3.173000000    -0.375000000
O    -5.000000000    -0.926000000    -4.784000000
H    -5.410000000    -0.689000000    -3.953000000
H    -5.158000000    -1.866000000    -4.870000000
O    -5.265000000     4.153000000    -3.442000000
H    -4.472000000     3.713000000    -3.139000000
H    -5.603000000     4.600000000    -2.666000000
