215
-1444.32821
C    -3.660000000    -2.561000000     2.817000000
H    -3.316000000    -1.867000000     3.581000000
C    -2.825000000    -3.429000000     2.157000000
C    -3.280000000    -4.265000000     1.123000000
H    -2.661000000    -4.980000000     0.587000000
C    -1.351000000    -3.444000000     2.540000000
O    -1.189000000    -3.133000000     3.909000000
H    -0.899000000    -2.625000000     1.961000000
O    -0.616000000    -4.626000000     2.208000000
C     0.556000000    -4.524000000     1.463000000
C     0.471000000    -4.638000000     0.100000000
H    -0.434000000    -4.933000000    -0.425000000
C     1.610000000    -4.329000000    -0.686000000
O     1.628000000    -4.189000000    -2.020000000
C     2.773000000    -3.979000000     0.026000000
C     4.045000000    -3.708000000    -0.700000000
H     4.840000000    -3.993000000    -0.008000000
C     4.113000000    -2.194000000    -1.049000000
C     4.826000000    -1.330000000    -0.176000000
H     5.203000000    -1.655000000     0.790000000
H     4.191000000    -4.376000000    -1.551000000
C     2.901000000    -3.991000000     1.418000000
H     3.841000000    -3.807000000     1.933000000
C     1.741000000    -4.295000000     2.176000000
C     1.652000000    -4.083000000     3.654000000
H     2.649000000    -4.149000000     4.095000000
H     0.915000000    -4.712000000     4.158000000
C     1.212000000    -2.682000000     4.035000000
C     2.167000000    -1.719000000     4.230000000
H     3.245000000    -1.848000000     4.181000000
C    -0.192000000    -2.303000000     4.177000000
C    -0.496000000    -0.976000000     4.470000000
H    -1.552000000    -0.729000000     4.551000000
C     0.478000000    -0.020000000     4.645000000
O    -0.009000000     1.322000000     4.795000000
C     0.178000000     2.219000000     3.682000000
C    -1.038000000     3.106000000     3.399000000
C    -1.000000000     4.116000000     2.397000000
H    -0.068000000     4.483000000     1.975000000
C    -2.271000000     2.670000000     3.845000000
H    -2.429000000     1.802000000     4.479000000
O     1.401000000     3.051000000     3.782000000
H     0.212000000     1.553000000     2.807000000
C     1.798000000    -0.365000000     4.497000000
C     2.867000000     0.752000000     4.734000000
H     3.786000000     0.285000000     5.094000000
H     2.559000000     1.502000000     5.466000000
C     3.212000000     1.474000000     3.408000000
C     4.253000000     1.027000000     2.542000000
H     4.869000000     0.197000000     2.878000000
C     2.456000000     2.547000000     2.972000000
C     2.628000000     3.194000000     1.702000000
H     2.019000000     4.052000000     1.427000000
C     3.631000000     2.623000000     0.919000000
O     3.771000000     3.292000000    -0.231000000
C     3.331000000     2.595000000    -1.418000000
C     2.831000000     3.605000000    -2.369000000
C     2.290000000     4.894000000    -1.982000000
H     2.428000000     5.303000000    -0.984000000
C     2.778000000     3.247000000    -3.755000000
H     3.225000000     2.344000000    -4.165000000
O     4.405000000     1.883000000    -1.964000000
H     2.440000000     1.984000000    -1.211000000
C     4.478000000     1.606000000     1.325000000
C     5.551000000     0.981000000     0.461000000
H     6.360000000     0.555000000     1.059000000
H     5.943000000     1.826000000    -0.109000000
C     4.864000000     0.007000000    -0.493000000
C     4.328000000     0.547000000    -1.643000000
C     3.803000000    -0.381000000    -2.617000000
H     3.309000000     0.046000000    -3.486000000
C     3.542000000    -1.664000000    -2.186000000
O     2.661000000    -2.343000000    -2.922000000
C     1.407000000    -2.793000000    -2.461000000
H     1.058000000    -2.266000000    -1.561000000
C     0.317000000    -2.608000000    -3.473000000
C    -0.781000000    -3.438000000    -3.394000000
H    -0.748000000    -4.247000000    -2.668000000
C     0.213000000    -1.435000000    -4.276000000
H     1.075000000    -0.774000000    -4.322000000
C    -0.828000000    -1.280000000    -5.105000000
O    -0.938000000    -0.143000000    -5.917000000
C    -1.834000000    -2.172000000    -5.192000000
H    -2.639000000    -2.101000000    -5.919000000
C    -1.828000000    -3.219000000    -4.293000000
O    -3.045000000    -3.975000000    -4.269000000
C    -3.463000000    -5.006000000    -3.408000000
C    -3.943000000    -4.636000000    -2.195000000
H    -4.064000000    -3.571000000    -2.012000000
C    -3.494000000    -6.289000000    -3.809000000
H    -2.995000000    -6.535000000    -4.743000000
C    -3.882000000    -7.327000000    -2.934000000
H    -3.720000000    -8.368000000    -3.202000000
C    -4.498000000    -6.931000000    -1.712000000
H    -5.034000000    -7.677000000    -1.132000000
C    -4.470000000    -5.604000000    -1.330000000
O    -5.104000000    -5.136000000    -0.237000000
C    -4.600000000    -4.204000000     0.668000000
C    -5.439000000    -3.268000000     1.230000000
H    -6.389000000    -3.222000000     0.704000000
C    -4.958000000    -2.415000000     2.277000000
O    -5.863000000    -1.530000000     2.754000000
C    -5.594000000    -0.564000000     3.718000000
C    -5.226000000     0.768000000     3.329000000
H    -5.108000000     0.915000000     2.259000000
C    -5.975000000    -0.780000000     5.029000000
H    -6.342000000    -1.740000000     5.384000000
C    -5.776000000     0.228000000     6.047000000
H    -5.865000000     0.009000000     7.108000000
C    -5.379000000     1.487000000     5.620000000
H    -5.244000000     2.247000000     6.386000000
C    -5.052000000     1.779000000     4.313000000
O    -4.636000000     3.042000000     3.978000000
C    -3.390000000     3.418000000     3.452000000
C    -3.365000000     4.477000000     2.606000000
H    -4.290000000     4.989000000     2.352000000
C    -2.173000000     4.670000000     1.917000000
O    -2.207000000     5.644000000     0.950000000
C    -1.061000000     6.370000000     0.584000000
C    -0.448000000     6.161000000    -0.673000000
H    -0.753000000     5.301000000    -1.263000000
C    -0.609000000     7.470000000     1.318000000
H    -1.090000000     7.633000000     2.279000000
C     0.393000000     8.278000000     0.964000000
H     0.721000000     9.050000000     1.656000000
C     0.897000000     8.156000000    -0.321000000
H     1.613000000     8.903000000    -0.652000000
C     0.484000000     7.111000000    -1.171000000
O     1.110000000     6.982000000    -2.437000000
C     1.667000000     5.813000000    -2.848000000
C     1.595000000     5.386000000    -4.179000000
H     1.181000000     6.115000000    -4.871000000
C     2.113000000     4.192000000    -4.615000000
O     1.903000000     3.888000000    -5.970000000
C     1.572000000     2.607000000    -6.490000000
C     2.108000000     2.158000000    -7.701000000
H     2.834000000     2.792000000    -8.202000000
C     1.709000000     0.916000000    -8.286000000
H     2.112000000     0.535000000    -9.222000000
C     0.715000000     0.186000000    -7.674000000
H     0.341000000    -0.739000000    -8.107000000
C     0.164000000     0.585000000    -6.424000000
C     0.632000000     1.758000000    -5.836000000
H     0.216000000     2.083000000    -4.886000000
C    -2.392000000     1.183000000     0.307000000
H    -3.150000000     1.511000000     1.014000000
C    -1.376000000     0.281000000     0.706000000
H    -1.397000000    -0.176000000     1.692000000
C    -0.175000000     0.140000000     0.007000000
H     0.594000000    -0.448000000     0.405000000
C    -0.065000000     0.715000000    -1.215000000
H     0.834000000     0.513000000    -1.791000000
C    -1.079000000     1.573000000    -1.730000000
H    -0.932000000     2.003000000    -2.718000000
C    -2.269000000     1.790000000    -1.006000000
C    -3.221000000     2.793000000    -1.453000000
O    -3.145000000     3.259000000    -2.616000000
O    -4.012000000     3.231000000    -0.619000000
O    -1.799000000     7.601000000    -4.852000000
H    -2.399000000     6.856000000    -4.807000000
H    -1.425000000     7.554000000    -5.732000000
O    -2.352000000     8.607000000    -1.294000000
H    -2.104000000     8.158000000    -2.103000000
H    -1.736000000     9.335000000    -1.226000000
O    -4.697000000     8.797000000     0.249000000
H    -5.300000000     9.127000000    -0.416000000
H    -3.869000000     8.678000000    -0.216000000
O    -3.297000000    -1.272000000    -1.518000000
H    -2.838000000    -0.842000000    -0.796000000
H    -2.629000000    -1.382000000    -2.195000000
O    -6.321000000     4.371000000     0.143000000
H    -5.434000000     4.178000000    -0.162000000
H    -6.545000000     3.634000000     0.711000000
O    -6.050000000     1.446000000     0.133000000
H    -5.388000000     2.097000000    -0.101000000
H    -6.383000000     1.129000000    -0.707000000
O    -3.011000000     5.242000000    -4.407000000
H    -2.619000000     4.524000000    -3.910000000
H    -3.597000000     4.811000000    -5.030000000
O    -8.124000000     2.346000000     1.495000000
H    -7.486000000     1.813000000     1.021000000
H    -8.966000000     2.119000000     1.100000000
O    -3.178000000     2.493000000    -7.875000000
H    -3.353000000     3.272000000    -7.348000000
H    -2.398000000     2.716000000    -8.382000000
O    -4.635000000     5.646000000    -1.677000000
H    -4.183000000     6.274000000    -1.113000000
H    -4.154000000     4.827000000    -1.559000000
O    -6.571000000     7.028000000     0.933000000
H    -5.639000000     7.194000000     0.791000000
H    -6.671000000     6.086000000     0.793000000
O    -4.504000000     4.324000000    -6.343000000
H    -5.157000000     5.006000000    -6.502000000
H    -5.018000000     3.553000000    -6.101000000
O    -5.661000000     7.213000000    -3.659000000
H    -5.818000000     6.828000000    -4.521000000
H    -5.022000000     6.630000000    -3.249000000
O    -8.474000000    -0.529000000    -2.836000000
H    -8.214000000     0.290000000    -3.257000000
H    -7.758000000    -0.727000000    -2.232000000
O    -5.898000000    -0.961000000    -2.173000000
H    -5.118000000    -0.782000000    -1.649000000
H    -5.566000000    -1.088000000    -3.062000000
O    -5.367000000     2.487000000    -3.816000000
H    -5.096000000     1.609000000    -3.546000000
H    -4.650000000     3.055000000    -3.534000000
O    -4.891000000    -1.157000000    -4.735000000
H    -5.123000000    -1.734000000    -5.462000000
H    -4.565000000    -0.361000000    -5.155000000
O    -7.201000000     4.382000000    -3.445000000
H    -6.665000000     4.702000000    -2.719000000
H    -6.710000000     3.639000000    -3.796000000
O    -8.896000000     5.243000000    -0.124000000
H    -9.432000000     4.811000000     0.541000000
H    -7.997000000     5.003000000     0.101000000
