215
-1475.42670
C    -2.605000000    -2.971000000     4.140000000
H    -2.346000000    -2.209000000     4.870000000
C    -1.623000000    -3.419000000     3.257000000
C    -1.976000000    -4.284000000     2.227000000
H    -1.270000000    -4.338000000     1.402000000
C    -0.230000000    -2.781000000     3.287000000
O     0.155000000    -2.186000000     4.494000000
H    -0.172000000    -2.037000000     2.479000000
O     0.704000000    -3.798000000     2.954000000
C     1.845000000    -3.414000000     2.274000000
C     1.903000000    -3.900000000     0.964000000
H     1.194000000    -4.641000000     0.603000000
C     2.919000000    -3.492000000     0.146000000
O     2.863000000    -3.762000000    -1.209000000
C     3.934000000    -2.644000000     0.672000000
C     4.978000000    -2.152000000    -0.226000000
H     5.964000000    -2.114000000     0.240000000
C     4.599000000    -0.898000000    -0.959000000
C     4.827000000     0.352000000    -0.396000000
H     5.380000000     0.474000000     0.532000000
H     5.260000000    -2.920000000    -0.950000000
C     3.881000000    -2.303000000     2.023000000
H     4.652000000    -1.740000000     2.542000000
C     2.850000000    -2.569000000     2.836000000
C     2.827000000    -2.124000000     4.298000000
H     3.843000000    -2.067000000     4.695000000
H     2.417000000    -2.864000000     4.988000000
C     2.081000000    -0.788000000     4.409000000
C     2.692000000     0.483000000     4.376000000
H     3.767000000     0.567000000     4.235000000
C     0.701000000    -0.918000000     4.396000000
C    -0.057000000     0.214000000     4.402000000
H    -1.136000000     0.096000000     4.354000000
C     0.509000000     1.440000000     4.306000000
O    -0.412000000     2.456000000     4.046000000
C    -0.605000000     2.948000000     2.743000000
C    -2.125000000     3.051000000     2.417000000
C    -2.491000000     3.655000000     1.204000000
H    -1.763000000     4.250000000     0.658000000
C    -3.101000000     2.358000000     3.142000000
H    -2.751000000     1.786000000     3.997000000
O     0.140000000     4.188000000     2.560000000
H    -0.294000000     2.151000000     2.051000000
C     1.891000000     1.630000000     4.255000000
C     2.452000000     2.997000000     4.068000000
H     3.479000000     3.059000000     4.435000000
H     1.852000000     3.677000000     4.676000000
C     2.438000000     3.343000000     2.594000000
C     3.556000000     3.104000000     1.786000000
H     4.399000000     2.669000000     2.316000000
C     1.345000000     4.017000000     1.973000000
C     1.379000000     4.271000000     0.638000000
H     0.515000000     4.721000000     0.155000000
C     2.497000000     4.049000000    -0.135000000
O     2.288000000     4.380000000    -1.505000000
C     2.029000000     3.221000000    -2.391000000
C     1.032000000     3.623000000    -3.541000000
C     0.212000000     4.709000000    -3.475000000
H     0.324000000     5.361000000    -2.613000000
C     0.902000000     2.670000000    -4.587000000
H     1.596000000     1.841000000    -4.698000000
O     3.310000000     2.656000000    -2.891000000
H     1.582000000     2.462000000    -1.732000000
C     3.626000000     3.419000000     0.417000000
C     4.800000000     2.964000000    -0.440000000
H     5.713000000     2.869000000     0.153000000
H     5.016000000     3.655000000    -1.258000000
C     4.444000000     1.575000000    -1.047000000
C     3.737000000     1.487000000    -2.263000000
C     3.513000000     0.252000000    -2.863000000
H     2.958000000     0.164000000    -3.794000000
C     3.918000000    -0.936000000    -2.232000000
O     3.565000000    -2.177000000    -2.690000000
C     2.370000000    -2.732000000    -2.102000000
H     1.842000000    -1.917000000    -1.584000000
C     1.350000000    -3.236000000    -3.104000000
C     0.355000000    -4.113000000    -2.574000000
H     0.314000000    -4.356000000    -1.516000000
C     1.339000000    -2.902000000    -4.433000000
H     2.160000000    -2.306000000    -4.823000000
C     0.320000000    -3.383000000    -5.295000000
O     0.176000000    -2.858000000    -6.604000000
C    -0.686000000    -4.245000000    -4.771000000
H    -1.508000000    -4.511000000    -5.430000000
C    -0.626000000    -4.664000000    -3.443000000
O    -1.639000000    -5.485000000    -3.021000000
C    -1.785000000    -6.014000000    -1.793000000
C    -2.674000000    -5.482000000    -0.854000000
H    -3.156000000    -4.508000000    -0.868000000
C    -1.084000000    -7.210000000    -1.506000000
H    -0.411000000    -7.564000000    -2.284000000
C    -1.220000000    -7.852000000    -0.253000000
H    -0.581000000    -8.714000000    -0.078000000
C    -2.186000000    -7.385000000     0.652000000
H    -2.380000000    -7.811000000     1.633000000
C    -2.877000000    -6.208000000     0.324000000
O    -3.745000000    -5.693000000     1.207000000
C    -3.332000000    -4.776000000     2.176000000
C    -4.333000000    -4.239000000     3.038000000
H    -5.390000000    -4.462000000     2.912000000
C    -3.935000000    -3.348000000     3.968000000
O    -4.795000000    -2.887000000     4.873000000
C    -4.735000000    -1.488000000     5.190000000
C    -5.015000000    -0.558000000     4.213000000
H    -5.289000000    -1.025000000     3.270000000
C    -4.604000000    -1.014000000     6.522000000
H    -4.526000000    -1.754000000     7.314000000
C    -4.578000000     0.314000000     6.783000000
H    -4.419000000     0.663000000     7.800000000
C    -4.739000000     1.248000000     5.757000000
H    -4.569000000     2.317000000     5.860000000
C    -5.045000000     0.831000000     4.477000000
O    -5.395000000     1.716000000     3.504000000
C    -4.441000000     2.396000000     2.753000000
C    -4.787000000     3.017000000     1.588000000
H    -5.840000000     3.010000000     1.322000000
C    -3.812000000     3.545000000     0.730000000
O    -4.092000000     4.129000000    -0.457000000
C    -3.434000000     5.219000000    -1.072000000
C    -2.878000000     4.983000000    -2.341000000
H    -2.811000000     3.946000000    -2.661000000
C    -3.338000000     6.454000000    -0.416000000
H    -3.723000000     6.690000000     0.573000000
C    -2.647000000     7.489000000    -1.025000000
H    -2.584000000     8.460000000    -0.541000000
C    -2.080000000     7.276000000    -2.314000000
H    -1.502000000     8.012000000    -2.866000000
C    -2.223000000     6.063000000    -2.902000000
O    -1.740000000     5.872000000    -4.207000000
C    -0.806000000     4.856000000    -4.477000000
C    -0.911000000     3.932000000    -5.500000000
H    -1.603000000     4.131000000    -6.313000000
C    -0.064000000     2.814000000    -5.563000000
O    -0.297000000     1.881000000    -6.555000000
C     0.484000000     0.806000000    -6.760000000
C     1.807000000     0.887000000    -7.220000000
H     2.221000000     1.878000000    -7.392000000
C     2.467000000    -0.282000000    -7.639000000
H     3.478000000    -0.129000000    -8.006000000
C     1.935000000    -1.504000000    -7.428000000
H     2.491000000    -2.421000000    -7.605000000
C     0.656000000    -1.626000000    -6.858000000
C    -0.062000000    -0.463000000    -6.521000000
H    -1.104000000    -0.539000000    -6.221000000
C    -2.587000000    -0.363000000    -0.196000000
H    -3.460000000    -0.463000000     0.444000000
C    -1.408000000    -0.017000000     0.471000000
H    -1.358000000     0.149000000     1.544000000
C    -0.219000000     0.042000000    -0.272000000
H     0.659000000     0.436000000     0.157000000
C    -0.231000000    -0.174000000    -1.691000000
H     0.669000000    -0.068000000    -2.291000000
C    -1.467000000    -0.409000000    -2.266000000
H    -1.440000000    -0.630000000    -3.330000000
C    -2.641000000    -0.660000000    -1.512000000
C    -3.932000000    -0.874000000    -2.198000000
O    -3.899000000    -1.608000000    -3.164000000
O    -4.950000000    -0.711000000    -1.534000000
O    -8.020000000    -3.914000000    -4.580000000
H    -7.191000000    -3.859000000    -5.055000000
H    -7.930000000    -3.282000000    -3.866000000
O    -3.376000000    -7.130000000    -4.851000000
H    -3.216000000    -8.059000000    -4.686000000
H    -2.594000000    -6.689000000    -4.521000000
O    -6.458000000    -4.680000000    -0.847000000
H    -6.454000000    -5.025000000    -1.740000000
H    -6.228000000    -3.757000000    -0.946000000
O    -6.976000000    -1.595000000    -2.939000000
H    -6.189000000    -1.170000000    -2.598000000
H    -7.685000000    -0.983000000    -2.739000000
O    -3.129000000    -2.310000000    -5.682000000
H    -2.566000000    -3.082000000    -5.616000000
H    -3.267000000    -2.036000000    -4.775000000
O    -5.320000000    -0.680000000    -7.122000000
H    -5.479000000    -1.307000000    -7.827000000
H    -4.406000000    -0.825000000    -6.875000000
O    -7.661000000    -2.096000000     2.567000000
H    -6.764000000    -2.067000000     2.236000000
H    -8.145000000    -2.590000000     1.904000000
O    -5.349000000    -3.404000000    -4.751000000
H    -4.957000000    -3.067000000    -5.557000000
H    -4.855000000    -2.981000000    -4.049000000
O    -8.770000000     1.185000000     0.442000000
H    -8.777000000     0.980000000     1.377000000
H    -7.874000000     0.996000000     0.162000000
O    -3.121000000     2.327000000    -7.206000000
H    -2.178000000     2.176000000    -7.152000000
H    -3.348000000     2.728000000    -6.367000000
O    -5.456000000    -2.050000000     0.843000000
H    -5.455000000    -1.492000000     0.065000000
H    -5.142000000    -2.898000000     0.530000000
O    -5.969000000     0.574000000    -4.406000000
H    -5.688000000     0.509000000    -5.319000000
H    -6.024000000    -0.334000000    -4.108000000
O    -6.047000000     2.024000000    -7.272000000
H    -5.491000000     2.431000000    -6.608000000
H    -5.643000000     1.171000000    -7.432000000
O    -4.859000000     3.363000000    -5.270000000
H    -5.393000000     2.819000000    -4.691000000
H    -5.221000000     4.244000000    -5.171000000
O    -2.563000000    -3.789000000    -8.031000000
H    -2.188000000    -3.122000000    -8.606000000
H    -3.315000000    -3.359000000    -7.623000000
O    -9.154000000    -3.202000000     0.462000000
H    -9.137000000    -2.526000000    -0.216000000
H    -8.859000000    -3.996000000     0.016000000
O    -5.484000000    -5.856000000    -3.642000000
H    -5.523000000    -5.001000000    -4.070000000
H    -4.667000000    -6.245000000    -3.956000000
O    -8.256000000     2.302000000    -4.389000000
H    -7.508000000     1.736000000    -4.581000000
H    -8.768000000     1.811000000    -3.745000000
O    -6.316000000     1.446000000    -0.751000000
H    -5.873000000     0.672000000    -1.100000000
H    -5.795000000     2.183000000    -1.067000000
