215
-1433.64622
C    -3.923000000    -1.535000000     2.258000000
H    -3.521000000    -0.749000000     2.893000000
C    -3.197000000    -2.697000000     2.026000000
C    -3.629000000    -3.627000000     1.011000000
H    -2.954000000    -4.460000000     0.833000000
C    -1.759000000    -2.688000000     2.552000000
O    -1.701000000    -2.375000000     3.954000000
H    -1.179000000    -1.913000000     2.030000000
O    -1.309000000    -4.075000000     2.371000000
C    -0.014000000    -4.179000000     1.985000000
C     0.221000000    -4.423000000     0.599000000
H    -0.613000000    -4.598000000    -0.076000000
C     1.518000000    -4.360000000     0.094000000
O     1.560000000    -4.655000000    -1.225000000
C     2.577000000    -4.054000000     0.986000000
C     3.959000000    -3.937000000     0.380000000
H     4.713000000    -4.159000000     1.137000000
C     4.226000000    -2.532000000    -0.211000000
C     4.915000000    -1.497000000     0.412000000
H     5.425000000    -1.702000000     1.350000000
H     4.013000000    -4.738000000    -0.360000000
C     2.340000000    -3.755000000     2.364000000
H     3.193000000    -3.438000000     2.958000000
C     1.047000000    -3.898000000     2.864000000
C     0.847000000    -3.529000000     4.242000000
H     1.762000000    -3.879000000     4.723000000
H     0.040000000    -4.147000000     4.641000000
C     0.688000000    -2.080000000     4.439000000
C     1.741000000    -1.148000000     4.663000000
H     2.767000000    -1.487000000     4.780000000
C    -0.632000000    -1.613000000     4.362000000
C    -0.839000000    -0.281000000     4.480000000
H    -1.826000000     0.139000000     4.304000000
C     0.216000000     0.669000000     4.682000000
O    -0.105000000     2.061000000     4.608000000
C    -0.030000000     2.710000000     3.346000000
C    -1.310000000     3.601000000     3.077000000
C    -1.187000000     4.485000000     2.049000000
H    -0.210000000     4.677000000     1.612000000
C    -2.537000000     3.306000000     3.652000000
H    -2.544000000     2.539000000     4.423000000
O     1.270000000     3.474000000     3.266000000
H     0.011000000     1.946000000     2.556000000
C     1.514000000     0.247000000     4.673000000
C     2.652000000     1.263000000     4.746000000
H     3.459000000     0.766000000     5.288000000
H     2.388000000     2.172000000     5.289000000
C     3.048000000     1.726000000     3.328000000
C     4.113000000     1.124000000     2.697000000
H     4.661000000     0.321000000     3.183000000
C     2.382000000     2.810000000     2.723000000
C     2.788000000     3.333000000     1.498000000
H     2.216000000     4.184000000     1.139000000
C     3.940000000     2.723000000     0.878000000
O     4.097000000     3.081000000    -0.394000000
C     3.428000000     2.250000000    -1.433000000
C     2.680000000     2.987000000    -2.526000000
C     2.223000000     4.307000000    -2.261000000
H     2.398000000     4.768000000    -1.292000000
C     2.122000000     2.383000000    -3.649000000
H     2.368000000     1.352000000    -3.890000000
O     4.459000000     1.337000000    -1.975000000
H     2.600000000     1.666000000    -1.004000000
C     4.577000000     1.616000000     1.460000000
C     5.606000000     0.808000000     0.695000000
H     6.378000000     0.449000000     1.379000000
H     6.098000000     1.609000000     0.140000000
C     4.951000000    -0.197000000    -0.139000000
C     4.479000000     0.085000000    -1.381000000
C     4.004000000    -1.021000000    -2.062000000
H     3.795000000    -0.949000000    -3.126000000
C     3.660000000    -2.210000000    -1.452000000
O     3.112000000    -3.168000000    -2.162000000
C     1.692000000    -3.510000000    -2.028000000
H     1.248000000    -2.700000000    -1.430000000
C     0.945000000    -3.588000000    -3.402000000
C    -0.339000000    -4.170000000    -3.366000000
H    -0.746000000    -4.628000000    -2.468000000
C     1.391000000    -2.980000000    -4.555000000
H     2.421000000    -2.649000000    -4.656000000
C     0.597000000    -2.843000000    -5.690000000
O     1.063000000    -2.272000000    -6.789000000
C    -0.673000000    -3.364000000    -5.684000000
H    -1.269000000    -3.202000000    -6.579000000
C    -1.165000000    -4.003000000    -4.493000000
O    -2.423000000    -4.565000000    -4.451000000
C    -3.106000000    -5.061000000    -3.385000000
C    -3.998000000    -4.272000000    -2.584000000
H    -4.185000000    -3.259000000    -2.930000000
C    -2.901000000    -6.352000000    -3.086000000
H    -2.145000000    -6.911000000    -3.631000000
C    -3.454000000    -6.930000000    -1.931000000
H    -3.197000000    -7.951000000    -1.662000000
C    -4.310000000    -6.175000000    -1.156000000
H    -4.761000000    -6.610000000    -0.268000000
C    -4.532000000    -4.873000000    -1.425000000
O    -5.327000000    -4.124000000    -0.613000000
C    -4.895000000    -3.397000000     0.417000000
C    -5.728000000    -2.375000000     0.819000000
H    -6.708000000    -2.324000000     0.352000000
C    -5.226000000    -1.472000000     1.789000000
O    -6.116000000    -0.476000000     2.061000000
C    -5.976000000     0.359000000     3.186000000
C    -5.461000000     1.582000000     2.959000000
H    -5.189000000     1.860000000     1.944000000
C    -6.328000000    -0.111000000     4.474000000
H    -6.727000000    -1.113000000     4.608000000
C    -5.961000000     0.658000000     5.575000000
H    -6.218000000     0.257000000     6.552000000
C    -5.557000000     2.022000000     5.290000000
H    -5.550000000     2.742000000     6.104000000
C    -5.378000000     2.465000000     3.981000000
O    -4.905000000     3.753000000     3.758000000
C    -3.670000000     4.009000000     3.245000000
C    -3.600000000     4.942000000     2.207000000
H    -4.498000000     5.465000000     1.889000000
C    -2.360000000     5.046000000     1.530000000
O    -2.274000000     5.910000000     0.451000000
C    -1.184000000     6.606000000    -0.034000000
C    -0.593000000     6.147000000    -1.256000000
H    -1.074000000     5.316000000    -1.766000000
C    -0.637000000     7.637000000     0.633000000
H    -1.238000000     7.884000000     1.504000000
C     0.557000000     8.235000000     0.161000000
H     0.953000000     9.122000000     0.648000000
C     1.108000000     7.805000000    -0.998000000
H     1.993000000     8.270000000    -1.425000000
C     0.545000000     6.770000000    -1.746000000
O     1.105000000     6.373000000    -2.934000000
C     1.490000000     5.024000000    -3.189000000
C     1.055000000     4.414000000    -4.368000000
H     0.432000000     4.935000000    -5.091000000
C     1.260000000     3.095000000    -4.546000000
O     0.692000000     2.471000000    -5.679000000
C     1.280000000     1.444000000    -6.278000000
C     2.283000000     1.642000000    -7.226000000
H     2.408000000     2.694000000    -7.466000000
C     2.875000000     0.635000000    -8.008000000
H     3.551000000     0.860000000    -8.829000000
C     2.501000000    -0.690000000    -7.813000000
H     2.938000000    -1.443000000    -8.463000000
C     1.600000000    -0.960000000    -6.799000000
C     1.010000000     0.064000000    -6.057000000
H     0.301000000    -0.332000000    -5.336000000
C    -2.108000000     1.505000000     0.342000000
H    -2.922000000     1.700000000     1.036000000
C    -1.142000000     0.763000000     0.951000000
H    -1.129000000     0.416000000     1.981000000
C    -0.061000000     0.299000000     0.197000000
H     0.698000000    -0.304000000     0.697000000
C    -0.043000000     0.475000000    -1.139000000
H     0.779000000     0.046000000    -1.707000000
C    -1.030000000     1.359000000    -1.756000000
H    -1.010000000     1.656000000    -2.801000000
C    -2.021000000     1.918000000    -0.966000000
C    -3.183000000     2.795000000    -1.462000000
O    -3.065000000     3.434000000    -2.497000000
O    -4.297000000     2.705000000    -0.915000000
O    -2.238000000     4.885000000    -7.270000000
H    -2.876000000     4.258000000    -7.610000000
H    -2.337000000     4.836000000    -6.319000000
O    -9.043000000     0.404000000    -4.114000000
H    -8.156000000     0.270000000    -3.780000000
H    -9.302000000     1.258000000    -3.770000000
O    -3.701000000     8.968000000    -1.953000000
H    -3.231000000     8.679000000    -2.735000000
H    -4.453000000     9.455000000    -2.292000000
O    -4.523000000     1.243000000    -6.967000000
H    -4.943000000     1.880000000    -7.545000000
H    -3.669000000     1.081000000    -7.367000000
O    -3.674000000     8.830000000     0.839000000
H    -4.538000000     9.223000000     0.713000000
H    -3.393000000     8.582000000    -0.042000000
O    -3.850000000    -0.466000000    -1.946000000
H    -4.053000000    -0.732000000    -1.049000000
H    -2.982000000    -0.067000000    -1.887000000
O    -5.944000000     4.528000000    -0.321000000
H    -5.186000000     4.016000000    -0.603000000
H    -6.620000000     3.875000000    -0.138000000
O    -6.616000000     1.718000000    -0.834000000
H    -5.820000000     2.228000000    -0.684000000
H    -6.675000000     1.639000000    -1.786000000
O    -2.571000000     4.657000000    -4.659000000
H    -2.461000000     4.068000000    -3.912000000
H    -2.844000000     5.488000000    -4.270000000
O    -8.630000000     2.588000000     0.694000000
H    -7.898000000     2.262000000     0.170000000
H    -9.407000000     2.218000000     0.276000000
O    -3.790000000     5.867000000    -2.670000000
H    -3.406000000     6.411000000    -1.982000000
H    -3.841000000     4.993000000    -2.284000000
O    -6.045000000     7.058000000    -0.941000000
H    -5.642000000     6.977000000    -1.805000000
H    -5.930000000     6.196000000    -0.541000000
O    -6.358000000     3.738000000    -6.236000000
H    -6.991000000     3.022000000    -6.300000000
H    -5.849000000     3.538000000    -5.451000000
O    -8.431000000    -0.420000000    -0.476000000
H    -7.801000000     0.290000000    -0.598000000
H    -8.533000000    -0.490000000     0.473000000
O    -6.321000000    -0.248000000    -3.221000000
H    -5.589000000    -0.223000000    -2.604000000
H    -5.924000000    -0.508000000    -4.052000000
O    -5.218000000     2.498000000    -4.078000000
H    -4.828000000     1.973000000    -4.777000000
H    -4.482000000     2.723000000    -3.509000000
O    -5.229000000    -1.051000000    -5.800000000
H    -4.903000000    -1.790000000    -6.313000000
H    -5.082000000    -0.288000000    -6.359000000
O    -6.664000000     5.066000000    -3.705000000
H    -6.065000000     5.806000000    -3.811000000
H    -6.093000000     4.298000000    -3.690000000
O    -8.438000000     5.203000000    -1.672000000
H    -8.040000000     5.549000000    -0.873000000
H    -7.701000000     4.867000000    -2.182000000
