215
-1458.60053
C    -3.775000000    -1.914000000    -2.407000000
H    -3.138000000    -1.399000000    -3.122000000
C    -4.375000000    -1.087000000    -1.490000000
C    -5.111000000    -1.681000000    -0.443000000
H    -5.446000000    -1.197000000     0.471000000
C    -4.062000000     0.416000000    -1.547000000
O    -4.010000000     1.062000000    -2.831000000
H    -3.055000000     0.485000000    -1.110000000
O    -4.839000000     1.164000000    -0.657000000
C    -4.188000000     1.979000000     0.223000000
C    -4.024000000     1.455000000     1.503000000
H    -4.514000000     0.514000000     1.739000000
C    -3.244000000     2.155000000     2.394000000
O    -2.914000000     1.423000000     3.542000000
C    -2.707000000     3.441000000     2.128000000
C    -1.921000000     4.220000000     3.184000000
H    -2.116000000     5.271000000     2.960000000
C    -0.463000000     3.825000000     3.049000000
C     0.414000000     4.436000000     2.216000000
H    -0.025000000     5.246000000     1.640000000
H    -2.275000000     3.949000000     4.181000000
C    -2.948000000     4.057000000     0.876000000
H    -2.486000000     5.033000000     0.758000000
C    -3.658000000     3.288000000    -0.109000000
C    -3.898000000     3.767000000    -1.529000000
H    -3.783000000     4.849000000    -1.623000000
H    -4.931000000     3.747000000    -1.882000000
C    -2.914000000     3.260000000    -2.474000000
C    -1.761000000     4.038000000    -2.663000000
H    -1.762000000     5.068000000    -2.317000000
C    -2.994000000     1.991000000    -3.028000000
C    -1.973000000     1.521000000    -3.854000000
H    -2.148000000     0.638000000    -4.463000000
C    -0.799000000     2.276000000    -4.002000000
O     0.199000000     1.745000000    -4.801000000
C     1.246000000     1.135000000    -4.057000000
C     1.619000000    -0.259000000    -4.635000000
C     2.831000000    -0.851000000    -4.258000000
H     3.465000000    -0.210000000    -3.651000000
C     0.722000000    -0.967000000    -5.435000000
H    -0.160000000    -0.430000000    -5.776000000
O     2.337000000     2.100000000    -3.955000000
H     0.879000000     0.923000000    -3.042000000
C    -0.692000000     3.561000000    -3.394000000
C     0.598000000     4.377000000    -3.518000000
H     0.348000000     5.427000000    -3.357000000
H     0.995000000     4.339000000    -4.535000000
C     1.691000000     3.939000000    -2.516000000
C     1.787000000     4.503000000    -1.291000000
H     1.128000000     5.349000000    -1.112000000
C     2.491000000     2.798000000    -2.808000000
C     3.387000000     2.282000000    -1.908000000
H     4.061000000     1.442000000    -2.058000000
C     3.500000000     2.904000000    -0.664000000
O     4.344000000     2.278000000     0.207000000
C     3.720000000     1.561000000     1.278000000
C     4.506000000     0.302000000     1.574000000
C     5.296000000    -0.290000000     0.535000000
H     5.518000000     0.198000000    -0.410000000
C     4.479000000    -0.321000000     2.830000000
H     3.891000000     0.107000000     3.638000000
O     3.443000000     2.387000000     2.517000000
H     2.713000000     1.236000000     0.977000000
C     2.733000000     4.043000000    -0.317000000
C     2.644000000     4.716000000     1.075000000
H     2.314000000     5.750000000     0.955000000
H     3.667000000     4.838000000     1.436000000
C     1.714000000     4.059000000     2.073000000
C     2.205000000     2.946000000     2.748000000
C     1.349000000     2.329000000     3.683000000
H     1.724000000     1.417000000     4.141000000
C     0.047000000     2.737000000     3.831000000
O    -0.874000000     1.961000000     4.586000000
C    -1.556000000     0.932000000     3.808000000
H    -1.012000000     0.773000000     2.865000000
C    -1.535000000    -0.416000000     4.522000000
C    -2.558000000    -1.359000000     4.370000000
H    -3.464000000    -0.969000000     3.913000000
C    -0.394000000    -0.849000000     5.111000000
H     0.467000000    -0.187000000     5.166000000
C    -0.372000000    -2.063000000     5.794000000
O     0.781000000    -2.455000000     6.375000000
C    -1.362000000    -2.968000000     5.591000000
H    -1.292000000    -3.953000000     6.044000000
C    -2.403000000    -2.699000000     4.787000000
O    -3.293000000    -3.682000000     4.492000000
C    -4.458000000    -3.438000000     3.883000000
C    -4.555000000    -3.597000000     2.526000000
H    -3.757000000    -4.108000000     1.994000000
C    -5.568000000    -3.072000000     4.658000000
H    -5.526000000    -2.985000000     5.741000000
C    -6.653000000    -2.632000000     4.035000000
H    -7.490000000    -2.309000000     4.650000000
C    -6.760000000    -2.770000000     2.672000000
H    -7.718000000    -2.569000000     2.199000000
C    -5.763000000    -3.343000000     1.849000000
O    -5.983000000    -3.725000000     0.607000000
C    -5.367000000    -3.067000000    -0.441000000
C    -4.885000000    -3.833000000    -1.480000000
H    -5.061000000    -4.902000000    -1.560000000
C    -4.100000000    -3.309000000    -2.441000000
O    -3.543000000    -4.115000000    -3.415000000
C    -3.069000000    -3.696000000    -4.620000000
C    -1.688000000    -3.664000000    -4.824000000
H    -1.033000000    -4.181000000    -4.127000000
C    -3.983000000    -3.353000000    -5.660000000
H    -5.037000000    -3.535000000    -5.466000000
C    -3.501000000    -2.949000000    -6.904000000
H    -4.204000000    -2.855000000    -7.728000000
C    -2.138000000    -2.873000000    -7.116000000
H    -1.799000000    -2.602000000    -8.113000000
C    -1.225000000    -3.210000000    -6.075000000
O     0.046000000    -3.138000000    -6.400000000
C     0.963000000    -2.268000000    -5.760000000
C     2.152000000    -2.870000000    -5.271000000
H     2.369000000    -3.918000000    -5.461000000
C     3.069000000    -2.155000000    -4.536000000
O     4.237000000    -2.868000000    -4.219000000
C     5.307000000    -2.212000000    -3.536000000
C     5.446000000    -2.419000000    -2.148000000
H     4.608000000    -2.885000000    -1.637000000
C     6.371000000    -1.737000000    -4.277000000
H     6.253000000    -1.672000000    -5.356000000
C     7.549000000    -1.262000000    -3.648000000
H     8.378000000    -0.937000000    -4.272000000
C     7.650000000    -1.487000000    -2.297000000
H     8.613000000    -1.196000000    -1.884000000
C     6.615000000    -2.055000000    -1.522000000
O     6.806000000    -2.096000000    -0.131000000
C     5.997000000    -1.462000000     0.834000000
C     5.781000000    -2.101000000     2.053000000
H     6.099000000    -3.134000000     2.173000000
C     5.107000000    -1.506000000     3.053000000
O     5.008000000    -2.193000000     4.253000000
C     4.148000000    -1.728000000     5.245000000
C     4.380000000    -0.484000000     5.896000000
H     5.286000000     0.068000000     5.662000000
C     3.485000000     0.027000000     6.791000000
H     3.649000000     0.981000000     7.285000000
C     2.286000000    -0.646000000     7.047000000
H     1.569000000    -0.257000000     7.766000000
C     2.005000000    -1.800000000     6.338000000
C     2.924000000    -2.390000000     5.419000000
H     2.730000000    -3.329000000     4.907000000
C     1.192000000    -2.113000000    -0.937000000
H     2.074000000    -2.588000000    -1.357000000
C     1.065000000    -0.719000000    -0.768000000
H     1.850000000    -0.092000000    -1.184000000
C    -0.070000000    -0.136000000    -0.226000000
H    -0.169000000     0.928000000    -0.173000000
C    -1.077000000    -0.942000000     0.256000000
H    -1.976000000    -0.518000000     0.697000000
C    -1.042000000    -2.271000000    -0.050000000
H    -1.853000000    -2.921000000     0.270000000
C     0.056000000    -2.900000000    -0.642000000
C     0.159000000    -4.391000000    -0.732000000
O    -0.841000000    -5.057000000    -0.774000000
O     1.274000000    -4.892000000    -0.965000000
O     4.569000000    -7.089000000     0.630000000
H     5.375000000    -7.577000000     0.802000000
H     4.128000000    -7.589000000    -0.057000000
O    -2.588000000    -7.092000000    -1.830000000
H    -2.283000000    -6.961000000    -2.728000000
H    -2.462000000    -6.242000000    -1.408000000
O    -5.244000000    -7.408000000    -2.791000000
H    -5.873000000    -7.145000000    -2.119000000
H    -4.390000000    -7.311000000    -2.371000000
O     3.576000000    -4.327000000     0.138000000
H     2.690000000    -4.488000000    -0.185000000
H     3.952000000    -5.200000000     0.252000000
O    -1.903000000    -7.736000000    -4.432000000
H    -2.475000000    -8.489000000    -4.284000000
H    -1.891000000    -7.629000000    -5.384000000
O    -2.473000000    -9.238000000    -0.081000000
H    -2.610000000    -8.465000000    -0.628000000
H    -1.525000000    -9.277000000     0.047000000
O    -0.606000000    -7.841000000     4.165000000
H     0.294000000    -7.656000000     3.897000000
H    -1.129000000    -7.673000000     3.380000000
O    -1.452000000    -6.524000000     1.356000000
H    -1.160000000    -5.943000000     2.058000000
H    -1.328000000    -6.013000000     0.556000000
O     0.244000000    -7.475000000    -1.522000000
H    -0.710000000    -7.393000000    -1.503000000
H     0.560000000    -6.691000000    -1.072000000
O     1.549000000    -6.863000000    -3.893000000
H     0.967000000    -6.156000000    -4.170000000
H     1.190000000    -7.156000000    -3.056000000
O     4.066000000    -6.661000000    -2.694000000
H     3.248000000    -6.898000000    -3.131000000
H     4.020000000    -5.709000000    -2.601000000
O     3.498000000    -9.041000000    -0.953000000
H     3.849000000    -9.927000000    -1.051000000
H     3.365000000    -8.737000000    -1.851000000
O     1.068000000    -2.270000000     2.569000000
H     2.022000000    -2.275000000     2.645000000
H     0.899000000    -1.915000000     1.697000000
O     0.334000000    -9.778000000     0.654000000
H     0.812000000    -9.613000000    -0.158000000
H     0.480000000    -8.993000000     1.182000000
O    -3.438000000    -8.075000000     3.265000000
H    -3.705000000    -8.990000000     3.183000000
H    -2.950000000    -7.894000000     2.462000000
O     0.084000000    -9.877000000    -3.056000000
H    -0.791000000    -9.639000000    -3.363000000
H     0.450000000    -9.058000000    -2.720000000
O     0.033000000    -5.080000000     3.282000000
H     0.332000000    -4.173000000     3.218000000
H     0.745000000    -5.537000000     3.729000000
O     1.583000000    -7.604000000     1.940000000
H     1.143000000    -6.777000000     1.744000000
H     2.371000000    -7.591000000     1.397000000
O     4.852000000    -5.908000000     3.232000000
H     5.713000000    -6.203000000     2.934000000
H     4.257000000    -6.154000000     2.524000000
