215
-1474.45248
C    -3.060000000    -1.471000000     3.873000000
H    -2.541000000    -0.700000000     4.438000000
C    -2.428000000    -2.531000000     3.306000000
C    -3.223000000    -3.522000000     2.692000000
H    -2.843000000    -4.358000000     2.111000000
C    -0.892000000    -2.568000000     3.203000000
O    -0.282000000    -2.169000000     4.436000000
H    -0.714000000    -1.851000000     2.387000000
O    -0.485000000    -3.914000000     2.845000000
C     0.449000000    -4.087000000     1.885000000
C     0.097000000    -4.467000000     0.607000000
H    -0.957000000    -4.680000000     0.445000000
C     1.087000000    -4.506000000    -0.446000000
O     0.808000000    -4.691000000    -1.749000000
C     2.484000000    -4.239000000    -0.095000000
C     3.551000000    -4.119000000    -1.161000000
H     4.518000000    -4.301000000    -0.687000000
C     3.578000000    -2.769000000    -1.887000000
C     4.432000000    -1.726000000    -1.375000000
H     5.088000000    -1.864000000    -0.519000000
H     3.425000000    -4.929000000    -1.883000000
C     2.798000000    -3.946000000     1.198000000
H     3.825000000    -3.655000000     1.404000000
C     1.787000000    -3.791000000     2.179000000
C     2.138000000    -3.506000000     3.621000000
H     3.146000000    -3.913000000     3.719000000
H     1.498000000    -4.084000000     4.292000000
C     2.055000000    -2.041000000     3.864000000
C     3.175000000    -1.254000000     3.580000000
H     4.083000000    -1.715000000     3.197000000
C     0.890000000    -1.474000000     4.306000000
C     0.850000000    -0.103000000     4.600000000
H    -0.118000000     0.340000000     4.817000000
C     1.937000000     0.714000000     4.347000000
O     1.707000000     2.137000000     4.476000000
C     1.640000000     2.860000000     3.217000000
C     0.485000000     3.782000000     3.224000000
C     0.610000000     5.032000000     2.439000000
H     1.597000000     5.346000000     2.106000000
C    -0.756000000     3.391000000     3.624000000
H    -0.829000000     2.639000000     4.406000000
O     2.942000000     3.391000000     2.978000000
H     1.450000000     2.247000000     2.323000000
C     3.139000000     0.136000000     3.896000000
C     4.392000000     0.966000000     3.580000000
H     5.314000000     0.404000000     3.744000000
H     4.432000000     1.788000000     4.298000000
C     4.343000000     1.587000000     2.169000000
C     4.892000000     0.927000000     1.114000000
H     5.321000000    -0.054000000     1.301000000
C     3.640000000     2.770000000     2.007000000
C     3.396000000     3.157000000     0.711000000
H     2.676000000     3.951000000     0.530000000
C     3.907000000     2.457000000    -0.428000000
O     3.503000000     2.860000000    -1.688000000
C     2.542000000     2.001000000    -2.381000000
C     1.542000000     2.849000000    -3.224000000
C     1.182000000     4.106000000    -2.798000000
H     1.568000000     4.576000000    -1.898000000
C     0.986000000     2.264000000    -4.359000000
H     1.189000000     1.227000000    -4.611000000
O     3.162000000     1.132000000    -3.353000000
H     1.931000000     1.456000000    -1.647000000
C     4.744000000     1.360000000    -0.207000000
C     5.351000000     0.569000000    -1.372000000
H     6.232000000     0.029000000    -1.021000000
H     5.714000000     1.231000000    -2.161000000
C     4.383000000    -0.411000000    -1.926000000
C     3.446000000    -0.193000000    -2.956000000
C     2.520000000    -1.123000000    -3.322000000
H     1.650000000    -0.876000000    -3.924000000
C     2.680000000    -2.484000000    -2.928000000
O     1.714000000    -3.342000000    -3.345000000
C     0.552000000    -3.547000000    -2.464000000
H     0.512000000    -2.709000000    -1.754000000
C    -0.761000000    -3.633000000    -3.282000000
C    -1.830000000    -4.283000000    -2.658000000
H    -1.641000000    -4.774000000    -1.707000000
C    -0.877000000    -2.991000000    -4.483000000
H     0.007000000    -2.501000000    -4.885000000
C    -2.121000000    -2.924000000    -5.111000000
O    -2.268000000    -2.183000000    -6.315000000
C    -3.182000000    -3.539000000    -4.482000000
H    -4.152000000    -3.436000000    -4.961000000
C    -3.072000000    -4.162000000    -3.256000000
O    -4.200000000    -4.705000000    -2.712000000
C    -4.204000000    -5.362000000    -1.500000000
C    -4.543000000    -4.520000000    -0.428000000
H    -4.690000000    -3.447000000    -0.526000000
C    -4.171000000    -6.731000000    -1.328000000
H    -3.919000000    -7.378000000    -2.164000000
C    -4.473000000    -7.309000000    -0.123000000
H    -4.478000000    -8.385000000     0.029000000
C    -4.879000000    -6.503000000     0.914000000
H    -5.136000000    -7.004000000     1.844000000
C    -4.970000000    -5.142000000     0.769000000
O    -5.357000000    -4.409000000     1.922000000
C    -4.618000000    -3.424000000     2.618000000
C    -5.260000000    -2.408000000     3.266000000
H    -6.345000000    -2.341000000     3.270000000
C    -4.436000000    -1.438000000     3.905000000
O    -5.061000000    -0.479000000     4.598000000
C    -4.469000000     0.676000000     5.043000000
C    -4.144000000     1.691000000     4.122000000
H    -4.332000000     1.488000000     3.071000000
C    -4.240000000     0.937000000     6.394000000
H    -4.612000000     0.241000000     7.140000000
C    -3.611000000     2.092000000     6.790000000
H    -3.393000000     2.151000000     7.854000000
C    -3.225000000     3.118000000     5.853000000
H    -2.774000000     4.023000000     6.254000000
C    -3.504000000     2.884000000     4.529000000
O    -3.121000000     3.666000000     3.487000000
C    -1.877000000     4.103000000     3.190000000
C    -1.740000000     5.321000000     2.486000000
H    -2.621000000     5.903000000     2.229000000
C    -0.497000000     5.820000000     2.216000000
O    -0.478000000     7.082000000     1.626000000
C     0.011000000     7.383000000     0.343000000
C    -0.191000000     6.533000000    -0.718000000
H    -0.611000000     5.566000000    -0.453000000
C     0.267000000     8.696000000    -0.002000000
H     0.194000000     9.530000000     0.692000000
C     0.543000000     9.081000000    -1.295000000
H     0.619000000    10.152000000    -1.465000000
C     0.433000000     8.124000000    -2.351000000
H     0.668000000     8.465000000    -3.356000000
C     0.095000000     6.835000000    -2.076000000
O    -0.275000000     6.030000000    -3.079000000
C     0.143000000     4.745000000    -3.486000000
C    -0.413000000     4.168000000    -4.605000000
H    -1.254000000     4.687000000    -5.058000000
C    -0.023000000     2.920000000    -5.082000000
O    -0.501000000     2.355000000    -6.298000000
C    -0.458000000     1.035000000    -6.640000000
C     0.576000000     0.694000000    -7.556000000
H     1.304000000     1.459000000    -7.815000000
C     0.620000000    -0.595000000    -8.108000000
H     1.363000000    -0.991000000    -8.796000000
C    -0.361000000    -1.477000000    -7.712000000
H    -0.379000000    -2.470000000    -8.155000000
C    -1.312000000    -1.198000000    -6.709000000
C    -1.312000000     0.064000000    -6.172000000
H    -2.011000000     0.405000000    -5.413000000
C    -1.429000000     2.241000000     0.203000000
H    -1.766000000     3.020000000     0.882000000
C    -0.547000000     1.237000000     0.571000000
H    -0.321000000     1.172000000     1.632000000
C     0.010000000     0.383000000    -0.358000000
H     0.727000000    -0.409000000    -0.068000000
C    -0.383000000     0.470000000    -1.655000000
H     0.169000000    -0.106000000    -2.393000000
C    -1.336000000     1.414000000    -2.022000000
H    -1.520000000     1.557000000    -3.084000000
C    -1.834000000     2.325000000    -1.112000000
C    -2.724000000     3.420000000    -1.544000000
O    -3.143000000     3.355000000    -2.710000000
O    -3.262000000     4.129000000    -0.750000000
O    -5.007000000     3.451000000     1.036000000
H    -4.293000000     3.237000000     1.637000000
H    -4.568000000     3.698000000     0.221000000
O    -1.599000000     8.375000000    -5.179000000
H    -1.550000000     9.322000000    -5.304000000
H    -2.323000000     8.251000000    -4.565000000
O    -6.451000000     1.069000000    -1.903000000
H    -6.356000000     2.022000000    -1.888000000
H    -7.161000000     0.909000000    -2.525000000
O    -4.713000000    -0.874000000    -5.804000000
H    -3.814000000    -1.203000000    -5.808000000
H    -4.678000000    -0.089000000    -5.258000000
O    -2.353000000     9.122000000     0.506000000
H    -1.467000000     8.886000000     0.778000000
H    -2.804000000     8.284000000     0.403000000
O    -2.962000000    -1.357000000     0.256000000
H    -2.386000000    -0.605000000     0.117000000
H    -3.504000000    -1.393000000    -0.532000000
O    -5.692000000    -0.565000000     0.705000000
H    -5.723000000     0.012000000    -0.058000000
H    -4.767000000    -0.791000000     0.797000000
O    -6.726000000     4.316000000     2.974000000
H    -6.246000000     4.127000000     2.167000000
H    -6.503000000     5.224000000     3.179000000
O    -4.284000000     1.298000000    -4.000000000
H    -3.772000000     2.032000000    -3.661000000
H    -5.155000000     1.664000000    -4.155000000
O     2.229000000     6.776000000    -4.935000000
H     1.378000000     6.350000000    -4.837000000
H     2.496000000     6.987000000    -4.041000000
O    -6.903000000     2.231000000    -4.914000000
H    -6.845000000     2.578000000    -5.804000000
H    -7.524000000     2.809000000    -4.472000000
O    -4.304000000    -0.759000000    -2.125000000
H    -5.080000000    -0.208000000    -2.027000000
H    -3.707000000    -0.239000000    -2.662000000
O    -3.731000000     4.341000000    -7.154000000
H    -4.503000000     3.778000000    -7.088000000
H    -3.618000000     4.697000000    -6.273000000
O    -3.762000000     5.109000000    -4.640000000
H    -3.165000000     5.846000000    -4.516000000
H    -3.573000000     4.522000000    -3.908000000
O    -5.884000000     6.840000000    -4.078000000
H    -5.484000000     7.413000000    -3.424000000
H    -5.247000000     6.136000000    -4.201000000
O    -3.336000000     7.963000000    -3.069000000
H    -3.118000000     7.372000000    -2.349000000
H    -3.284000000     8.838000000    -2.685000000
O    -5.901000000     4.079000000    -1.990000000
H    -4.958000000     3.916000000    -2.009000000
H    -6.151000000     4.142000000    -2.912000000
O    -6.393000000     6.592000000    -0.632000000
H    -6.926000000     6.579000000     0.163000000
H    -6.465000000     5.705000000    -0.983000000
O    -3.614000000     6.740000000    -0.536000000
H    -4.506000000     7.019000000    -0.326000000
H    -3.663000000     5.784000000    -0.566000000
