215
-1471.40775
C    -1.342000000    -1.919000000     4.761000000
H    -0.616000000    -1.251000000     5.218000000
C    -0.935000000    -2.858000000     3.736000000
C    -1.900000000    -3.614000000     3.113000000
H    -1.699000000    -4.148000000     2.188000000
C     0.465000000    -2.850000000     3.205000000
O     1.439000000    -2.387000000     4.264000000
H     0.389000000    -2.075000000     2.428000000
O     0.827000000    -4.104000000     2.579000000
C     1.464000000    -3.948000000     1.404000000
C     0.686000000    -4.169000000     0.249000000
H    -0.390000000    -4.317000000     0.304000000
C     1.244000000    -4.025000000    -0.995000000
O     0.393000000    -4.217000000    -2.037000000
C     2.614000000    -3.665000000    -1.132000000
C     3.280000000    -3.593000000    -2.517000000
H     4.318000000    -3.930000000    -2.490000000
C     3.156000000    -2.183000000    -3.112000000
C     4.185000000    -1.251000000    -2.956000000
H     5.159000000    -1.522000000    -2.555000000
H     2.865000000    -4.382000000    -3.147000000
C     3.339000000    -3.413000000     0.045000000
H     4.384000000    -3.115000000     0.064000000
C     2.750000000    -3.594000000     1.277000000
C     3.554000000    -3.302000000     2.558000000
H     4.628000000    -3.498000000     2.552000000
H     3.065000000    -3.883000000     3.343000000
C     3.359000000    -1.897000000     2.892000000
C     4.238000000    -0.928000000     2.341000000
H     5.066000000    -1.273000000     1.727000000
C     2.327000000    -1.457000000     3.752000000
C     2.145000000    -0.124000000     4.191000000
H     1.314000000     0.120000000     4.848000000
C     3.014000000     0.819000000     3.564000000
O     2.733000000     2.178000000     3.711000000
C     2.005000000     2.880000000     2.653000000
C     0.844000000     3.741000000     3.141000000
C     0.401000000     4.856000000     2.410000000
H     0.874000000     5.211000000     1.498000000
C     0.151000000     3.316000000     4.287000000
H     0.491000000     2.430000000     4.816000000
O     3.010000000     3.631000000     1.923000000
H     1.553000000     2.048000000     2.092000000
C     4.078000000     0.421000000     2.733000000
C     5.021000000     1.422000000     2.097000000
H     5.992000000     0.944000000     1.953000000
H     5.181000000     2.153000000     2.893000000
C     4.445000000     2.007000000     0.806000000
C     4.892000000     1.469000000    -0.413000000
H     5.569000000     0.619000000    -0.427000000
C     3.510000000     3.059000000     0.766000000
C     3.103000000     3.575000000    -0.495000000
H     2.529000000     4.497000000    -0.549000000
C     3.512000000     2.959000000    -1.639000000
O     2.926000000     3.311000000    -2.850000000
C     1.908000000     2.425000000    -3.270000000
C     0.583000000     2.974000000    -3.670000000
C    -0.200000000     3.638000000    -2.701000000
H     0.268000000     3.929000000    -1.764000000
C    -0.065000000     2.591000000    -4.889000000
H     0.365000000     1.876000000    -5.586000000
O     2.529000000     1.682000000    -4.330000000
H     1.720000000     1.742000000    -2.428000000
C     4.415000000     1.874000000    -1.619000000
C     4.863000000     1.207000000    -2.869000000
H     5.900000000     0.870000000    -2.821000000
H     4.902000000     2.028000000    -3.589000000
C     3.946000000     0.118000000    -3.288000000
C     2.819000000     0.382000000    -4.028000000
C     1.859000000    -0.582000000    -4.305000000
H     1.023000000    -0.378000000    -4.969000000
C     1.992000000    -1.887000000    -3.810000000
O     0.829000000    -2.694000000    -3.876000000
C    -0.036000000    -3.034000000    -2.747000000
H    -0.021000000    -2.167000000    -2.071000000
C    -1.534000000    -3.228000000    -3.129000000
C    -2.323000000    -3.996000000    -2.305000000
H    -1.939000000    -4.434000000    -1.387000000
C    -2.151000000    -2.453000000    -4.124000000
H    -1.540000000    -1.811000000    -4.754000000
C    -3.489000000    -2.475000000    -4.347000000
O    -4.138000000    -1.837000000    -5.389000000
C    -4.250000000    -3.276000000    -3.530000000
H    -5.305000000    -3.400000000    -3.756000000
C    -3.772000000    -4.001000000    -2.477000000
O    -4.636000000    -4.644000000    -1.521000000
C    -4.269000000    -5.263000000    -0.336000000
C    -4.235000000    -4.560000000     0.888000000
H    -4.498000000    -3.506000000     0.917000000
C    -3.919000000    -6.605000000    -0.319000000
H    -3.887000000    -7.182000000    -1.240000000
C    -3.617000000    -7.313000000     0.868000000
H    -3.543000000    -8.393000000     0.768000000
C    -3.664000000    -6.626000000     2.041000000
H    -3.588000000    -7.051000000     3.039000000
C    -3.968000000    -5.281000000     2.038000000
O    -4.055000000    -4.629000000     3.270000000
C    -3.185000000    -3.640000000     3.663000000
C    -3.578000000    -2.752000000     4.699000000
H    -4.582000000    -2.624000000     5.095000000
C    -2.667000000    -1.840000000     5.156000000
O    -3.063000000    -0.919000000     6.071000000
C    -2.338000000     0.143000000     6.586000000
C    -2.313000000     1.434000000     5.934000000
H    -3.042000000     1.591000000     5.143000000
C    -1.615000000    -0.013000000     7.782000000
H    -1.692000000    -0.907000000     8.395000000
C    -0.906000000     1.075000000     8.342000000
H    -0.336000000     0.954000000     9.261000000
C    -0.899000000     2.336000000     7.653000000
H    -0.257000000     3.140000000     8.004000000
C    -1.561000000     2.508000000     6.437000000
O    -1.601000000     3.775000000     5.924000000
C    -0.951000000     4.126000000     4.762000000
C    -1.322000000     5.263000000     4.025000000
H    -2.134000000     5.870000000     4.417000000
C    -0.712000000     5.595000000     2.798000000
O    -1.161000000     6.730000000     2.104000000
C    -1.472000000     6.816000000     0.746000000
C    -1.929000000     5.673000000     0.093000000
H    -2.265000000     4.831000000     0.693000000
C    -0.892000000     7.871000000     0.000000000
H    -0.458000000     8.721000000     0.519000000
C    -0.877000000     7.909000000    -1.358000000
H    -0.533000000     8.730000000    -1.983000000
C    -1.449000000     6.829000000    -2.026000000
H    -1.407000000     6.847000000    -3.112000000
C    -1.937000000     5.705000000    -1.304000000
O    -2.321000000     4.580000000    -2.010000000
C    -1.528000000     3.990000000    -2.961000000
C    -2.132000000     3.514000000    -4.133000000
H    -3.165000000     3.744000000    -4.383000000
C    -1.385000000     2.785000000    -5.072000000
O    -2.015000000     2.378000000    -6.228000000
C    -2.312000000     1.107000000    -6.621000000
C    -2.102000000     0.703000000    -7.971000000
H    -1.452000000     1.301000000    -8.604000000
C    -2.527000000    -0.553000000    -8.404000000
H    -2.433000000    -0.768000000    -9.465000000
C    -3.270000000    -1.368000000    -7.558000000
H    -3.536000000    -2.353000000    -7.933000000
C    -3.445000000    -1.000000000    -6.237000000
C    -2.943000000     0.227000000    -5.786000000
H    -3.149000000     0.547000000    -4.767000000
C    -1.816000000     1.296000000     1.875000000
H    -2.189000000     1.499000000     2.875000000
C    -0.602000000     0.675000000     1.671000000
H     0.024000000     0.283000000     2.469000000
C    -0.103000000     0.544000000     0.336000000
H     0.844000000     0.022000000     0.212000000
C    -0.830000000     1.069000000    -0.705000000
H    -0.443000000     0.986000000    -1.717000000
C    -2.122000000     1.605000000    -0.526000000
H    -2.718000000     1.965000000    -1.361000000
C    -2.536000000     1.686000000     0.834000000
C    -3.815000000     2.446000000     1.121000000
O    -4.395000000     2.902000000     0.157000000
O    -4.238000000     2.589000000     2.250000000
O    -4.606000000     4.550000000     4.193000000
H    -5.519000000     4.264000000     4.159000000
H    -4.106000000     3.787000000     3.902000000
O    -4.095000000    -0.754000000     0.353000000
H    -4.575000000    -0.338000000    -0.363000000
H    -3.368000000    -0.158000000     0.533000000
O    -8.996000000     1.496000000     0.607000000
H    -9.147000000     1.084000000    -0.244000000
H    -9.094000000     0.783000000     1.238000000
O    -2.953000000     8.329000000     3.776000000
H    -3.537000000     8.062000000     3.067000000
H    -3.539000000     8.517000000     4.510000000
O    -8.310000000     1.311000000     5.130000000
H    -8.497000000     0.788000000     4.350000000
H    -7.492000000     0.949000000     5.470000000
O    -8.771000000    -0.570000000     2.669000000
H    -9.213000000    -1.347000000     2.327000000
H    -7.839000000    -0.784000000     2.621000000
O    -7.191000000    -1.912000000    -1.966000000
H    -7.782000000    -1.621000000    -2.660000000
H    -6.710000000    -1.124000000    -1.714000000
O    -6.228000000    -0.103000000     6.406000000
H    -5.730000000     0.235000000     5.662000000
H    -6.523000000    -0.969000000     6.123000000
O    -7.545000000     3.551000000    -2.764000000
H    -8.140000000     4.075000000    -2.229000000
H    -6.672000000     3.780000000    -2.446000000
O    -7.173000000     6.214000000    -1.186000000
H    -7.376000000     6.579000000    -0.325000000
H    -6.544000000     5.514000000    -1.007000000
O    -5.140000000     4.434000000    -1.687000000
H    -4.380000000     4.366000000    -2.265000000
H    -4.937000000     3.849000000    -0.956000000
O    -5.137000000     5.183000000     1.457000000
H    -4.854000000     4.501000000     0.848000000
H    -4.827000000     4.883000000     2.312000000
O    -5.575000000     0.747000000    -1.207000000
H    -5.416000000     1.642000000    -0.907000000
H    -5.784000000     0.840000000    -2.137000000
O    -5.445000000     0.738000000     3.863000000
H    -5.658000000     0.043000000     3.241000000
H    -4.951000000     1.376000000     3.348000000
O    -7.074000000     3.067000000     1.381000000
H    -6.196000000     2.799000000     1.111000000
H    -7.662000000     2.543000000     0.837000000
O    -7.088000000     3.529000000     4.192000000
H    -7.026000000     3.368000000     3.251000000
H    -7.478000000     2.730000000     4.547000000
O    -7.957000000     5.715000000     1.634000000
H    -7.882000000     4.803000000     1.354000000
H    -7.084000000     5.939000000     1.957000000
O    -5.192000000     8.209000000     0.668000000
H    -5.639000000     8.564000000     1.437000000
H    -4.797000000     7.394000000     0.975000000
O    -6.120000000    -1.353000000     2.053000000
H    -5.601000000    -1.146000000     1.276000000
H    -5.895000000    -2.262000000     2.255000000
