215
-1449.55045
C    -4.268000000    -1.625000000    -1.855000000
H    -4.015000000    -1.213000000    -2.829000000
C    -4.461000000    -0.820000000    -0.722000000
C    -4.850000000    -1.448000000     0.481000000
H    -4.891000000    -0.852000000     1.390000000
C    -4.013000000     0.648000000    -0.864000000
O    -4.264000000     1.169000000    -2.186000000
H    -2.930000000     0.623000000    -0.675000000
O    -4.599000000     1.475000000     0.124000000
C    -3.813000000     2.297000000     0.818000000
C    -3.465000000     2.026000000     2.153000000
H    -3.782000000     1.128000000     2.676000000
C    -2.536000000     2.785000000     2.824000000
O    -2.000000000     2.386000000     4.008000000
C    -2.045000000     3.961000000     2.166000000
C    -0.917000000     4.663000000     2.905000000
H    -0.952000000     5.678000000     2.505000000
C     0.462000000     4.049000000     2.589000000
C     1.108000000     4.397000000     1.444000000
H     0.762000000     5.206000000     0.807000000
H    -1.141000000     4.741000000     3.971000000
C    -2.442000000     4.337000000     0.896000000
H    -2.048000000     5.243000000     0.443000000
C    -3.318000000     3.441000000     0.164000000
C    -3.676000000     3.836000000    -1.343000000
H    -3.598000000     4.923000000    -1.421000000
H    -4.729000000     3.622000000    -1.534000000
C    -2.826000000     3.107000000    -2.259000000
C    -1.700000000     3.679000000    -2.702000000
H    -1.539000000     4.686000000    -2.327000000
C    -3.174000000     1.887000000    -2.794000000
C    -2.373000000     1.238000000    -3.718000000
H    -2.520000000     0.183000000    -3.934000000
C    -1.257000000     1.866000000    -4.234000000
O    -0.347000000     1.300000000    -5.112000000
C     0.695000000     0.549000000    -4.467000000
C     0.945000000    -0.829000000    -4.991000000
C     2.102000000    -1.556000000    -4.697000000
H     2.989000000    -1.095000000    -4.270000000
C    -0.208000000    -1.519000000    -5.438000000
H    -1.211000000    -1.101000000    -5.489000000
O     1.941000000     1.298000000    -4.552000000
H     0.370000000     0.407000000    -3.426000000
C    -0.844000000     3.066000000    -3.650000000
C     0.410000000     3.810000000    -4.102000000
H     0.395000000     4.885000000    -3.915000000
H     0.532000000     3.728000000    -5.184000000
C     1.608000000     3.359000000    -3.289000000
C     2.028000000     4.125000000    -2.180000000
H     1.554000000     5.064000000    -1.904000000
C     2.243000000     2.128000000    -3.494000000
C     3.330000000     1.774000000    -2.683000000
H     3.860000000     0.860000000    -2.939000000
C     3.731000000     2.517000000    -1.592000000
O     4.633000000     2.027000000    -0.647000000
C     4.028000000     1.371000000     0.544000000
C     4.715000000     0.060000000     0.864000000
C     4.471000000    -0.998000000     0.047000000
H     3.977000000    -0.904000000    -0.916000000
C     5.238000000    -0.184000000     2.151000000
H     5.242000000     0.642000000     2.857000000
O     4.084000000     2.306000000     1.648000000
H     2.960000000     1.150000000     0.401000000
C     3.036000000     3.739000000    -1.289000000
C     3.271000000     4.556000000     0.014000000
H     2.978000000     5.592000000    -0.166000000
H     4.339000000     4.526000000     0.240000000
C     2.392000000     3.968000000     1.122000000
C     2.909000000     2.957000000     1.853000000
C     2.213000000     2.423000000     2.977000000
H     2.600000000     1.661000000     3.648000000
C     0.985000000     2.962000000     3.345000000
O     0.304000000     2.435000000     4.362000000
C    -0.765000000     1.617000000     3.879000000
H    -0.670000000     1.272000000     2.839000000
C    -0.785000000     0.324000000     4.681000000
C    -1.960000000    -0.153000000     5.144000000
H    -2.889000000     0.375000000     4.950000000
C     0.415000000    -0.317000000     4.943000000
H     1.359000000     0.118000000     4.625000000
C     0.392000000    -1.525000000     5.662000000
O     1.587000000    -2.170000000     6.037000000
C    -0.786000000    -2.039000000     6.147000000
H    -0.740000000    -2.960000000     6.721000000
C    -1.974000000    -1.337000000     5.841000000
O    -3.154000000    -1.873000000     6.165000000
C    -4.100000000    -2.087000000     5.232000000
C    -3.787000000    -2.575000000     3.952000000
H    -2.796000000    -2.887000000     3.632000000
C    -5.414000000    -1.573000000     5.586000000
H    -5.651000000    -1.174000000     6.569000000
C    -6.434000000    -1.659000000     4.536000000
H    -7.432000000    -1.252000000     4.681000000
C    -6.175000000    -2.296000000     3.324000000
H    -6.998000000    -2.449000000     2.630000000
C    -4.899000000    -2.709000000     3.087000000
O    -4.749000000    -3.371000000     1.881000000
C    -4.839000000    -2.790000000     0.649000000
C    -4.696000000    -3.603000000    -0.478000000
H    -4.825000000    -4.675000000    -0.349000000
C    -4.493000000    -3.017000000    -1.730000000
O    -4.547000000    -3.808000000    -2.826000000
C    -4.162000000    -3.499000000    -4.063000000
C    -2.890000000    -3.633000000    -4.533000000
H    -2.173000000    -4.085000000    -3.853000000
C    -5.157000000    -3.093000000    -4.956000000
H    -6.155000000    -3.091000000    -4.525000000
C    -4.903000000    -2.799000000    -6.342000000
H    -5.759000000    -2.485000000    -6.935000000
C    -3.577000000    -2.795000000    -6.722000000
H    -3.380000000    -2.407000000    -7.718000000
C    -2.584000000    -3.216000000    -5.822000000
O    -1.317000000    -3.508000000    -6.282000000
C    -0.177000000    -2.877000000    -5.795000000
C     1.047000000    -3.546000000    -5.711000000
H     1.157000000    -4.574000000    -6.047000000
C     2.089000000    -2.938000000    -5.095000000
O     3.232000000    -3.662000000    -4.965000000
C     4.175000000    -3.366000000    -3.995000000
C     3.964000000    -3.636000000    -2.720000000
H     3.043000000    -4.007000000    -2.278000000
C     5.346000000    -2.785000000    -4.502000000
H     5.454000000    -2.616000000    -5.570000000
C     6.358000000    -2.471000000    -3.617000000
H     7.194000000    -1.856000000    -3.943000000
C     6.138000000    -2.618000000    -2.243000000
H     6.936000000    -2.383000000    -1.543000000
C     4.941000000    -3.240000000    -1.802000000
O     4.656000000    -3.392000000    -0.440000000
C     4.860000000    -2.306000000     0.328000000
C     5.360000000    -2.541000000     1.546000000
H     5.670000000    -3.465000000     2.028000000
C     5.583000000    -1.504000000     2.509000000
O     5.881000000    -1.801000000     3.830000000
C     5.028000000    -1.467000000     4.864000000
C     5.478000000    -0.659000000     5.895000000
H     6.532000000    -0.398000000     5.931000000
C     4.602000000    -0.347000000     6.933000000
H     4.983000000     0.352000000     7.674000000
C     3.254000000    -0.671000000     6.958000000
H     2.574000000    -0.435000000     7.772000000
C     2.816000000    -1.504000000     5.889000000
C     3.691000000    -1.850000000     4.878000000
H     3.281000000    -2.639000000     4.253000000
C     0.404000000    -2.292000000    -1.174000000
H     1.058000000    -2.800000000    -1.878000000
C     0.579000000    -0.944000000    -0.973000000
H     1.434000000    -0.372000000    -1.324000000
C    -0.263000000    -0.226000000    -0.083000000
H    -0.031000000     0.858000000     0.162000000
C    -1.236000000    -0.978000000     0.595000000
H    -1.814000000    -0.472000000     1.364000000
C    -1.508000000    -2.299000000     0.302000000
H    -2.185000000    -2.960000000     0.837000000
C    -0.682000000    -2.976000000    -0.618000000
C    -0.818000000    -4.458000000    -0.836000000
O    -1.675000000    -5.077000000    -0.282000000
O    -0.031000000    -4.994000000    -1.572000000
O     3.670000000    -6.294000000     1.226000000
H     3.791000000    -5.350000000     1.327000000
H     2.954000000    -6.378000000     0.596000000
O     3.239000000    -6.885000000    -3.707000000
H     2.448000000    -6.392000000    -3.923000000
H     2.917000000    -7.687000000    -3.296000000
O    -3.412000000    -6.581000000    -1.596000000
H    -2.888000000    -6.926000000    -2.319000000
H    -2.826000000    -5.978000000    -1.141000000
O    -1.534000000   -10.126000000    -2.617000000
H    -2.200000000    -9.746000000    -2.045000000
H    -1.454000000   -11.033000000    -2.322000000
O    -5.557000000    -7.284000000     0.020000000
H    -5.348000000    -6.837000000     0.840000000
H    -4.884000000    -6.987000000    -0.592000000
O     1.994000000    -6.506000000    -0.879000000
H     1.176000000    -6.031000000    -1.026000000
H     1.875000000    -7.337000000    -1.338000000
O    -2.141000000    -7.913000000    -4.174000000
H    -1.615000000    -8.510000000    -3.641000000
H    -2.421000000    -8.442000000    -4.921000000
O    -2.517000000    -9.136000000     1.703000000
H    -2.346000000    -8.218000000     1.914000000
H    -2.741000000    -9.537000000     2.543000000
O     0.260000000    -9.220000000    -4.769000000
H     0.180000000   -10.133000000    -5.044000000
H     0.359000000    -9.263000000    -3.818000000
O    -2.079000000    -6.467000000     2.088000000
H    -1.401000000    -6.073000000     2.637000000
H    -2.186000000    -5.852000000     1.362000000
O    -2.326000000    -6.454000000    -6.397000000
H    -1.663000000    -5.764000000    -6.395000000
H    -2.221000000    -6.890000000    -5.551000000
O    -0.668000000    -8.200000000    -0.577000000
H    -1.246000000    -8.826000000    -0.141000000
H    -1.027000000    -7.343000000    -0.348000000
O     0.710000000    -5.913000000    -3.973000000
H     0.431000000    -5.460000000    -3.177000000
H     0.213000000    -6.731000000    -3.969000000
O     1.427000000    -8.767000000    -2.249000000
H     0.641000000    -8.554000000    -1.747000000
H     1.526000000    -9.714000000    -2.149000000
O     1.533000000    -3.423000000     1.309000000
H     2.134000000    -3.489000000     0.567000000
H     0.829000000    -2.854000000     0.997000000
O    -5.453000000    -6.885000000    -3.534000000
H    -5.655000000    -6.247000000    -4.219000000
H    -4.847000000    -6.426000000    -2.952000000
O    -3.986000000    -6.856000000     3.950000000
H    -3.840000000    -7.768000000     4.202000000
H    -3.433000000    -6.729000000     3.179000000
O     0.443000000    -5.435000000     2.704000000
H     0.892000000    -4.729000000     2.238000000
H     0.849000000    -5.445000000     3.571000000
O     0.739000000    -7.931000000     1.899000000
H     0.201000000    -7.985000000     1.110000000
H     0.722000000    -7.004000000     2.138000000
