215
-1461.12038
C    -0.734000000    -1.906000000     5.025000000
H     0.021000000    -1.251000000     5.452000000
C    -0.386000000    -2.748000000     3.948000000
C    -1.413000000    -3.562000000     3.355000000
H    -1.151000000    -4.167000000     2.491000000
C     0.957000000    -2.611000000     3.248000000
O     1.993000000    -2.051000000     4.096000000
H     0.838000000    -1.924000000     2.397000000
O     1.488000000    -3.792000000     2.781000000
C     2.117000000    -3.799000000     1.559000000
C     1.360000000    -4.134000000     0.470000000
H     0.371000000    -4.516000000     0.710000000
C     1.831000000    -4.008000000    -0.847000000
O     0.905000000    -4.315000000    -1.790000000
C     3.086000000    -3.454000000    -1.033000000
C     3.644000000    -3.298000000    -2.456000000
H     4.724000000    -3.388000000    -2.323000000
C     3.117000000    -2.040000000    -3.121000000
C     3.793000000    -0.825000000    -2.957000000
H     4.652000000    -0.893000000    -2.295000000
H     3.472000000    -4.211000000    -3.029000000
C     3.868000000    -3.065000000     0.085000000
H     4.804000000    -2.524000000    -0.026000000
C     3.433000000    -3.288000000     1.342000000
C     4.209000000    -2.807000000     2.517000000
H     5.271000000    -2.974000000     2.327000000
H     3.819000000    -3.483000000     3.281000000
C     3.815000000    -1.317000000     2.779000000
C     4.583000000    -0.318000000     2.167000000
H     5.348000000    -0.776000000     1.545000000
C     2.748000000    -1.013000000     3.566000000
C     2.444000000     0.251000000     3.926000000
H     1.681000000     0.437000000     4.678000000
C     3.217000000     1.245000000     3.367000000
O     2.702000000     2.516000000     3.572000000
C     1.818000000     3.035000000     2.537000000
C     0.566000000     3.687000000     3.092000000
C    -0.195000000     4.531000000     2.293000000
H     0.163000000     4.825000000     1.309000000
C     0.103000000     3.288000000     4.370000000
H     0.751000000     2.651000000     4.966000000
O     2.611000000     3.943000000     1.717000000
H     1.570000000     2.145000000     1.940000000
C     4.274000000     0.956000000     2.469000000
C     5.030000000     2.082000000     1.755000000
H     6.004000000     1.644000000     1.526000000
H     5.246000000     2.911000000     2.432000000
C     4.268000000     2.500000000     0.479000000
C     4.676000000     2.045000000    -0.855000000
H     5.575000000     1.438000000    -0.928000000
C     3.125000000     3.369000000     0.594000000
C     2.404000000     3.607000000    -0.587000000
H     1.489000000     4.195000000    -0.593000000
C     2.682000000     3.019000000    -1.843000000
O     1.741000000     3.276000000    -2.834000000
C     0.973000000     2.181000000    -3.422000000
C    -0.476000000     2.644000000    -3.811000000
C    -1.029000000     3.776000000    -3.142000000
H    -0.534000000     4.144000000    -2.247000000
C    -1.213000000     2.103000000    -4.890000000
H    -0.782000000     1.263000000    -5.429000000
O     1.684000000     1.625000000    -4.568000000
H     0.916000000     1.449000000    -2.604000000
C     3.812000000     2.248000000    -1.976000000
C     4.174000000     1.616000000    -3.303000000
H     5.194000000     1.226000000    -3.304000000
H     4.144000000     2.337000000    -4.123000000
C     3.338000000     0.337000000    -3.527000000
C     2.197000000     0.370000000    -4.300000000
C     1.418000000    -0.791000000    -4.370000000
H     0.489000000    -0.756000000    -4.933000000
C     1.915000000    -2.043000000    -3.903000000
O     1.170000000    -3.203000000    -3.889000000
C     0.404000000    -3.252000000    -2.643000000
H     0.499000000    -2.300000000    -2.099000000
C    -1.105000000    -3.443000000    -2.887000000
C    -1.922000000    -4.097000000    -1.989000000
H    -1.518000000    -4.512000000    -1.069000000
C    -1.643000000    -2.804000000    -3.993000000
H    -1.090000000    -2.241000000    -4.740000000
C    -3.032000000    -2.923000000    -4.228000000
O    -3.600000000    -2.564000000    -5.449000000
C    -3.810000000    -3.641000000    -3.347000000
H    -4.850000000    -3.911000000    -3.514000000
C    -3.278000000    -4.180000000    -2.180000000
O    -4.109000000    -4.608000000    -1.189000000
C    -3.728000000    -5.315000000    -0.105000000
C    -3.958000000    -4.653000000     1.099000000
H    -4.349000000    -3.641000000     1.033000000
C    -3.352000000    -6.594000000    -0.139000000
H    -3.249000000    -7.112000000    -1.089000000
C    -3.054000000    -7.297000000     1.070000000
H    -2.784000000    -8.343000000     0.948000000
C    -3.244000000    -6.600000000     2.267000000
H    -2.996000000    -7.130000000     3.182000000
C    -3.697000000    -5.263000000     2.365000000
O    -3.702000000    -4.451000000     3.525000000
C    -2.648000000    -3.725000000     4.001000000
C    -2.892000000    -2.942000000     5.144000000
H    -3.801000000    -3.209000000     5.675000000
C    -2.007000000    -1.982000000     5.614000000
O    -2.351000000    -1.305000000     6.705000000
C    -1.784000000    -0.110000000     7.024000000
C    -2.117000000     0.997000000     6.208000000
H    -2.585000000     0.961000000     5.228000000
C    -1.245000000     0.036000000     8.296000000
H    -1.131000000    -0.881000000     8.870000000
C    -0.844000000     1.290000000     8.746000000
H    -0.538000000     1.389000000     9.785000000
C    -1.073000000     2.364000000     7.900000000
H    -0.872000000     3.381000000     8.225000000
C    -1.597000000     2.202000000     6.641000000
O    -1.727000000     3.376000000     5.917000000
C    -1.186000000     3.756000000     4.736000000
C    -1.914000000     4.677000000     3.952000000
H    -2.784000000     5.217000000     4.315000000
C    -1.427000000     4.983000000     2.691000000
O    -2.154000000     5.873000000     1.863000000
C    -1.806000000     6.172000000     0.517000000
C    -2.510000000     5.598000000    -0.549000000
H    -3.199000000     4.768000000    -0.418000000
C    -0.838000000     7.200000000     0.351000000
H    -0.446000000     7.627000000     1.271000000
C    -0.704000000     7.716000000    -0.906000000
H     0.092000000     8.446000000    -1.030000000
C    -1.356000000     7.138000000    -1.984000000
H    -1.030000000     7.344000000    -3.001000000
C    -2.288000000     6.085000000    -1.810000000
O    -2.814000000     5.429000000    -2.877000000
C    -2.232000000     4.287000000    -3.519000000
C    -2.931000000     3.759000000    -4.597000000
H    -3.841000000     4.256000000    -4.925000000
C    -2.491000000     2.607000000    -5.262000000
O    -3.241000000     2.135000000    -6.319000000
C    -3.140000000     0.806000000    -6.747000000
C    -2.870000000     0.535000000    -8.115000000
H    -2.676000000     1.296000000    -8.867000000
C    -2.894000000    -0.796000000    -8.542000000
H    -2.653000000    -1.059000000    -9.569000000
C    -3.053000000    -1.819000000    -7.601000000
H    -3.057000000    -2.880000000    -7.840000000
C    -3.192000000    -1.550000000    -6.270000000
C    -3.341000000    -0.218000000    -5.847000000
H    -3.512000000    -0.067000000    -4.785000000
C    -1.923000000     1.378000000     1.814000000
H    -2.206000000     1.557000000     2.848000000
C    -0.742000000     0.721000000     1.439000000
H    -0.182000000     0.267000000     2.253000000
C    -0.417000000     0.503000000     0.127000000
H     0.480000000    -0.104000000    -0.107000000
C    -1.278000000     0.990000000    -0.876000000
H    -1.034000000     0.816000000    -1.921000000
C    -2.481000000     1.527000000    -0.518000000
H    -3.267000000     1.779000000    -1.226000000
C    -2.788000000     1.778000000     0.820000000
C    -3.990000000     2.481000000     1.354000000
O    -4.878000000     2.823000000     0.493000000
O    -4.241000000     2.652000000     2.496000000
O    -5.252000000     4.365000000     4.207000000
H    -6.081000000     3.941000000     3.987000000
H    -4.598000000     3.895000000     3.690000000
O    -4.138000000    -0.881000000     1.650000000
H    -4.830000000    -0.691000000     1.016000000
H    -3.380000000    -0.390000000     1.331000000
O    -5.249000000    -0.253000000    -2.753000000
H    -5.567000000    -0.165000000    -3.651000000
H    -5.643000000    -1.066000000    -2.438000000
O    -8.759000000     0.006000000     4.650000000
H    -8.168000000     0.537000000     4.116000000
H    -8.719000000    -0.866000000     4.257000000
O    -7.454000000     1.320000000     2.628000000
H    -7.196000000     0.950000000     1.784000000
H    -7.296000000     2.259000000     2.537000000
O    -5.889000000    -2.367000000     3.454000000
H    -5.656000000    -1.849000000     2.683000000
H    -5.051000000    -2.677000000     3.797000000
O    -6.096000000     0.569000000     6.624000000
H    -5.650000000     0.628000000     5.780000000
H    -6.844000000    -0.005000000     6.460000000
O    -9.169000000     2.401000000    -1.093000000
H    -9.217000000     3.357000000    -1.089000000
H    -9.348000000     2.148000000    -0.187000000
O    -6.173000000     6.045000000    -0.822000000
H    -5.537000000     6.138000000    -0.113000000
H    -5.956000000     5.206000000    -1.229000000
O    -5.758000000     3.605000000    -1.790000000
H    -6.329000000     2.938000000    -2.172000000
H    -5.461000000     3.221000000    -0.965000000
O    -9.019000000     5.472000000    -1.209000000
H    -9.599000000     5.677000000    -0.476000000
H    -8.148000000     5.412000000    -0.817000000
O    -4.777000000     6.280000000     1.424000000
H    -3.892000000     5.918000000     1.459000000
H    -4.819000000     6.881000000     2.168000000
O    -6.013000000     0.198000000    -0.071000000
H    -5.574000000     1.049000000    -0.061000000
H    -6.181000000     0.026000000    -0.997000000
O    -6.018000000     7.016000000     3.945000000
H    -6.243000000     7.445000000     4.771000000
H    -5.762000000     6.129000000     4.198000000
O    -4.883000000     0.787000000     4.219000000
H    -4.572000000     0.135000000     3.591000000
H    -4.940000000     1.598000000     3.715000000
O    -7.064000000     4.000000000     1.495000000
H    -6.452000000     3.517000000     0.940000000
H    -6.617000000     4.825000000     1.683000000
O    -9.894000000     4.710000000     3.151000000
H    -9.223000000     4.173000000     2.729000000
H    -9.510000000     4.957000000     3.992000000
O    -4.320000000     4.769000000     6.651000000
H    -4.867000000     4.717000000     5.868000000
H    -4.569000000     4.004000000     7.169000000
O    -7.351000000    -2.044000000     0.896000000
H    -7.527000000    -1.568000000     0.085000000
H    -7.256000000    -2.956000000     0.623000000
