215
-1478.02506
C    -1.495000000    -1.588000000     4.712000000
H    -0.682000000    -0.960000000     5.068000000
C    -1.153000000    -2.624000000     3.827000000
C    -2.156000000    -3.381000000     3.207000000
H    -1.922000000    -4.209000000     2.543000000
C     0.326000000    -2.850000000     3.284000000
O     1.294000000    -2.383000000     4.236000000
H     0.399000000    -2.157000000     2.433000000
O     0.628000000    -4.198000000     2.781000000
C     1.279000000    -4.250000000     1.538000000
C     0.426000000    -4.516000000     0.425000000
H    -0.622000000    -4.759000000     0.583000000
C     0.939000000    -4.342000000    -0.859000000
O     0.063000000    -4.315000000    -1.917000000
C     2.357000000    -4.013000000    -1.009000000
C     2.993000000    -3.891000000    -2.361000000
H     4.046000000    -4.181000000    -2.357000000
C     2.817000000    -2.535000000    -3.033000000
C     3.781000000    -1.518000000    -2.792000000
H     4.547000000    -1.541000000    -2.022000000
H     2.505000000    -4.577000000    -3.055000000
C     3.185000000    -3.804000000     0.136000000
H     4.208000000    -3.500000000    -0.071000000
C     2.607000000    -3.921000000     1.353000000
C     3.463000000    -3.468000000     2.545000000
H     4.527000000    -3.655000000     2.387000000
H     3.207000000    -4.013000000     3.456000000
C     3.360000000    -2.008000000     2.888000000
C     4.327000000    -1.071000000     2.461000000
H     5.032000000    -1.445000000     1.723000000
C     2.355000000    -1.561000000     3.796000000
C     2.310000000    -0.233000000     4.159000000
H     1.457000000     0.054000000     4.768000000
C     3.203000000     0.723000000     3.582000000
O     2.859000000     2.082000000     3.633000000
C     2.130000000     2.680000000     2.594000000
C     1.146000000     3.681000000     3.222000000
C     0.833000000     4.872000000     2.603000000
H     1.311000000     5.088000000     1.651000000
C     0.418000000     3.332000000     4.403000000
H     0.638000000     2.385000000     4.889000000
O     3.113000000     3.450000000     1.857000000
H     1.622000000     1.887000000     2.025000000
C     4.200000000     0.307000000     2.721000000
C     5.173000000     1.266000000     2.073000000
H     6.136000000     0.793000000     1.869000000
H     5.493000000     2.042000000     2.770000000
C     4.599000000     1.796000000     0.770000000
C     5.019000000     1.165000000    -0.431000000
H     5.772000000     0.383000000    -0.486000000
C     3.624000000     2.827000000     0.722000000
C     3.009000000     3.192000000    -0.438000000
H     2.339000000     4.045000000    -0.514000000
C     3.281000000     2.499000000    -1.630000000
O     2.603000000     2.862000000    -2.802000000
C     1.522000000     2.063000000    -3.287000000
C     0.273000000     2.810000000    -3.716000000
C    -0.203000000     3.862000000    -2.943000000
H     0.359000000     4.122000000    -2.050000000
C    -0.521000000     2.361000000    -4.758000000
H    -0.129000000     1.559000000    -5.379000000
O     2.038000000     1.336000000    -4.408000000
H     1.171000000     1.431000000    -2.458000000
C     4.368000000     1.543000000    -1.630000000
C     4.677000000     0.861000000    -3.018000000
H     5.699000000     0.483000000    -2.953000000
H     4.609000000     1.726000000    -3.682000000
C     3.659000000    -0.276000000    -3.389000000
C     2.513000000     0.050000000    -4.162000000
C     1.564000000    -0.960000000    -4.357000000
H     0.663000000    -0.714000000    -4.913000000
C     1.673000000    -2.212000000    -3.707000000
O     0.629000000    -3.062000000    -3.843000000
C    -0.324000000    -3.209000000    -2.670000000
H    -0.102000000    -2.348000000    -2.022000000
C    -1.773000000    -3.295000000    -3.156000000
C    -2.685000000    -3.991000000    -2.385000000
H    -2.386000000    -4.554000000    -1.504000000
C    -2.243000000    -2.509000000    -4.213000000
H    -1.538000000    -1.923000000    -4.798000000
C    -3.569000000    -2.576000000    -4.605000000
O    -3.952000000    -2.040000000    -5.828000000
C    -4.530000000    -3.148000000    -3.791000000
H    -5.585000000    -3.234000000    -4.037000000
C    -4.055000000    -3.814000000    -2.659000000
O    -4.977000000    -4.353000000    -1.811000000
C    -4.664000000    -4.929000000    -0.577000000
C    -4.862000000    -4.236000000     0.638000000
H    -5.266000000    -3.227000000     0.626000000
C    -4.038000000    -6.174000000    -0.424000000
H    -3.764000000    -6.759000000    -1.298000000
C    -3.556000000    -6.637000000     0.838000000
H    -3.122000000    -7.629000000     0.935000000
C    -3.814000000    -5.896000000     1.967000000
H    -3.426000000    -6.280000000     2.907000000
C    -4.367000000    -4.632000000     1.904000000
O    -4.547000000    -3.865000000     2.987000000
C    -3.528000000    -3.123000000     3.560000000
C    -3.826000000    -2.131000000     4.507000000
H    -4.820000000    -1.923000000     4.895000000
C    -2.813000000    -1.417000000     5.127000000
O    -3.243000000    -0.521000000     6.050000000
C    -2.376000000     0.383000000     6.626000000
C    -2.374000000     1.745000000     6.104000000
H    -3.136000000     1.993000000     5.369000000
C    -1.430000000     0.026000000     7.571000000
H    -1.332000000    -0.991000000     7.941000000
C    -0.553000000     0.951000000     8.031000000
H     0.249000000     0.671000000     8.709000000
C    -0.596000000     2.297000000     7.629000000
H     0.143000000     3.014000000     7.980000000
C    -1.487000000     2.631000000     6.604000000
O    -1.295000000     3.897000000     6.077000000
C    -0.566000000     4.157000000     4.961000000
C    -0.892000000     5.344000000     4.241000000
H    -1.627000000     5.995000000     4.707000000
C    -0.240000000     5.653000000     3.049000000
O    -0.649000000     6.779000000     2.324000000
C    -0.689000000     6.794000000     0.919000000
C    -1.357000000     5.822000000     0.175000000
H    -1.946000000     5.028000000     0.625000000
C     0.022000000     7.828000000     0.362000000
H     0.509000000     8.563000000     0.998000000
C     0.065000000     7.929000000    -1.012000000
H     0.623000000     8.768000000    -1.419000000
C    -0.557000000     6.982000000    -1.811000000
H    -0.554000000     7.087000000    -2.893000000
C    -1.290000000     5.934000000    -1.199000000
O    -2.011000000     5.014000000    -1.943000000
C    -1.522000000     4.246000000    -2.961000000
C    -2.305000000     3.921000000    -4.117000000
H    -3.363000000     4.158000000    -4.205000000
C    -1.780000000     2.901000000    -4.967000000
O    -2.489000000     2.525000000    -6.079000000
C    -2.520000000     1.234000000    -6.649000000
C    -2.013000000     1.029000000    -7.962000000
H    -1.636000000     1.806000000    -8.623000000
C    -2.039000000    -0.245000000    -8.521000000
H    -1.736000000    -0.425000000    -9.550000000
C    -2.687000000    -1.300000000    -7.812000000
H    -2.847000000    -2.263000000    -8.292000000
C    -3.210000000    -1.052000000    -6.519000000
C    -3.128000000     0.234000000    -5.955000000
H    -3.526000000     0.422000000    -4.962000000
C    -1.717000000     1.607000000     1.685000000
H    -2.102000000     1.791000000     2.684000000
C    -0.651000000     0.724000000     1.478000000
H    -0.165000000     0.250000000     2.327000000
C    -0.242000000     0.497000000     0.150000000
H     0.518000000    -0.297000000    -0.124000000
C    -0.890000000     0.996000000    -0.950000000
H    -0.503000000     0.874000000    -1.959000000
C    -2.016000000     1.793000000    -0.706000000
H    -2.566000000     2.173000000    -1.563000000
C    -2.455000000     2.107000000     0.569000000
C    -3.713000000     2.887000000     0.775000000
O    -4.277000000     3.446000000    -0.153000000
O    -4.077000000     3.109000000     1.908000000
O    -4.713000000     4.434000000     4.206000000
H    -5.652000000     4.292000000     4.087000000
H    -4.302000000     3.898000000     3.528000000
O    -9.621000000     5.101000000     1.454000000
H    -9.397000000     6.031000000     1.436000000
H    -8.781000000     4.650000000     1.362000000
O    -3.853000000    -0.463000000     1.076000000
H    -4.027000000    -0.714000000     0.169000000
H    -2.939000000    -0.179000000     1.075000000
O    -5.305000000     1.534000000    -3.318000000
H    -5.500000000     2.415000000    -2.999000000
H    -5.705000000     1.499000000    -4.187000000
O    -7.524000000     0.135000000    -2.590000000
H    -8.110000000     0.525000000    -3.239000000
H    -6.645000000     0.373000000    -2.888000000
O    -6.592000000    -0.622000000     0.061000000
H    -7.095000000    -0.502000000    -0.745000000
H    -5.770000000    -0.159000000    -0.099000000
O    -4.996000000     6.448000000    -4.136000000
H    -5.911000000     6.509000000    -4.411000000
H    -4.976000000     5.704000000    -3.534000000
O    -6.131000000     0.650000000     5.230000000
H    -5.911000000     0.601000000     4.300000000
H    -5.301000000     0.850000000     5.663000000
O    -5.121000000     4.346000000    -2.430000000
H    -6.076000000     4.322000000    -2.371000000
H    -4.821000000     3.972000000    -1.602000000
O    -7.755000000     4.718000000    -1.515000000
H    -8.608000000     4.469000000    -1.871000000
H    -7.775000000     4.409000000    -0.609000000
O    -4.410000000     6.486000000    -0.185000000
H    -4.501000000     5.606000000    -0.549000000
H    -4.125000000     6.343000000     0.718000000
O    -4.201000000     6.839000000     2.757000000
H    -4.367000000     5.925000000     2.991000000
H    -4.373000000     7.326000000     3.563000000
O    -4.144000000    -0.559000000    -1.597000000
H    -4.390000000     0.181000000    -2.151000000
H    -3.908000000    -1.252000000    -2.214000000
O    -5.267000000     0.823000000     2.818000000
H    -4.815000000     0.276000000     2.176000000
H    -4.866000000     1.687000000     2.721000000
O    -6.935000000     3.663000000     1.068000000
H    -6.929000000     3.657000000     2.025000000
H    -6.021000000     3.522000000     0.822000000
O    -8.911000000     1.040000000     2.175000000
H    -8.198000000     1.549000000     1.790000000
H    -8.477000000     0.300000000     2.599000000
O    -7.630000000     3.785000000     3.874000000
H    -8.152000000     4.515000000     4.207000000
H    -8.081000000     3.004000000     4.194000000
O    -7.604000000     7.316000000     2.105000000
H    -6.766000000     7.158000000     1.670000000
H    -7.390000000     7.900000000     2.832000000
O    -7.308000000    -1.348000000     2.430000000
H    -6.408000000    -1.300000000     2.752000000
H    -7.271000000    -0.955000000     1.557000000
