215
-1445.24834
C    -0.411000000    -1.731000000     4.687000000
H     0.351000000    -0.967000000     4.819000000
C    -0.176000000    -2.864000000     3.924000000
C    -1.132000000    -3.876000000     3.886000000
H    -0.934000000    -4.791000000     3.335000000
C     1.111000000    -2.999000000     3.075000000
O     2.262000000    -2.382000000     3.722000000
H     1.009000000    -2.297000000     2.234000000
O     1.441000000    -4.376000000     2.694000000
C     1.689000000    -4.629000000     1.350000000
C     0.611000000    -4.679000000     0.492000000
H    -0.410000000    -4.910000000     0.784000000
C     0.782000000    -4.513000000    -0.924000000
O    -0.323000000    -4.519000000    -1.718000000
C     2.028000000    -4.190000000    -1.387000000
C     2.135000000    -4.059000000    -2.919000000
H     3.184000000    -4.267000000    -3.136000000
C     1.878000000    -2.662000000    -3.448000000
C     2.898000000    -1.759000000    -3.697000000
H     3.901000000    -2.095000000    -3.446000000
H     1.453000000    -4.733000000    -3.442000000
C     3.086000000    -3.962000000    -0.551000000
H     4.057000000    -3.597000000    -0.877000000
C     2.900000000    -4.177000000     0.819000000
C     4.018000000    -3.676000000     1.793000000
H     5.008000000    -3.981000000     1.447000000
H     3.935000000    -4.158000000     2.770000000
C     3.945000000    -2.153000000     2.055000000
C     4.700000000    -1.207000000     1.261000000
H     5.450000000    -1.475000000     0.521000000
C     3.090000000    -1.642000000     3.005000000
C     2.917000000    -0.301000000     3.173000000
H     2.124000000     0.075000000     3.814000000
C     3.665000000     0.614000000     2.433000000
O     3.549000000     1.995000000     2.642000000
C     2.828000000     2.816000000     1.673000000
C     1.829000000     3.759000000     2.293000000
C     1.437000000     4.878000000     1.657000000
H     1.810000000     5.045000000     0.650000000
C     1.293000000     3.449000000     3.530000000
H     1.604000000     2.548000000     4.052000000
O     3.645000000     3.426000000     0.744000000
H     2.189000000     2.107000000     1.126000000
C     4.624000000     0.126000000     1.527000000
C     5.359000000     1.153000000     0.617000000
H     6.184000000     0.554000000     0.226000000
H     5.822000000     1.974000000     1.169000000
C     4.552000000     1.673000000    -0.578000000
C     4.586000000     0.981000000    -1.773000000
H     5.299000000     0.175000000    -1.927000000
C     3.812000000     2.860000000    -0.476000000
C     3.028000000     3.292000000    -1.538000000
H     2.265000000     4.062000000    -1.450000000
C     2.973000000     2.555000000    -2.727000000
O     2.159000000     2.971000000    -3.739000000
C     0.900000000     2.230000000    -3.710000000
C    -0.303000000     3.039000000    -3.945000000
C    -0.391000000     4.287000000    -3.288000000
H     0.460000000     4.671000000    -2.731000000
C    -1.362000000     2.536000000    -4.624000000
H    -1.289000000     1.591000000    -5.156000000
O     1.054000000     1.262000000    -4.783000000
H     0.781000000     1.740000000    -2.732000000
C     3.782000000     1.358000000    -2.855000000
C     3.873000000     0.554000000    -4.023000000
H     4.777000000    -0.052000000    -4.117000000
H     3.783000000     1.190000000    -4.906000000
C     2.692000000    -0.434000000    -4.067000000
C     1.446000000    -0.041000000    -4.470000000
C     0.376000000    -0.949000000    -4.327000000
H    -0.640000000    -0.593000000    -4.474000000
C     0.582000000    -2.260000000    -3.838000000
O    -0.535000000    -2.974000000    -3.549000000
C    -0.838000000    -3.260000000    -2.115000000
H    -0.344000000    -2.464000000    -1.537000000
C    -2.325000000    -3.106000000    -1.900000000
C    -3.027000000    -3.998000000    -1.090000000
H    -2.422000000    -4.763000000    -0.610000000
C    -3.102000000    -1.987000000    -2.484000000
H    -2.527000000    -1.304000000    -3.105000000
C    -4.479000000    -1.902000000    -2.283000000
O    -5.133000000    -0.744000000    -2.645000000
C    -5.123000000    -2.803000000    -1.456000000
H    -6.166000000    -2.578000000    -1.248000000
C    -4.437000000    -3.882000000    -0.893000000
O    -5.150000000    -4.695000000    -0.078000000
C    -4.580000000    -5.329000000     0.998000000
C    -4.138000000    -4.615000000     2.138000000
H    -4.091000000    -3.530000000     2.178000000
C    -4.578000000    -6.694000000     1.042000000
H    -4.946000000    -7.252000000     0.186000000
C    -4.045000000    -7.364000000     2.134000000
H    -4.030000000    -8.451000000     2.112000000
C    -3.495000000    -6.708000000     3.198000000
H    -3.041000000    -7.218000000     4.043000000
C    -3.659000000    -5.329000000     3.226000000
O    -3.468000000    -4.579000000     4.366000000
C    -2.359000000    -3.746000000     4.567000000
C    -2.589000000    -2.624000000     5.267000000
H    -3.563000000    -2.511000000     5.736000000
C    -1.657000000    -1.590000000     5.265000000
O    -2.037000000    -0.519000000     6.039000000
C    -1.199000000     0.553000000     6.471000000
C    -1.126000000     1.718000000     5.703000000
H    -1.875000000     1.967000000     4.956000000
C    -0.233000000     0.346000000     7.490000000
H    -0.328000000    -0.575000000     8.059000000
C     0.749000000     1.308000000     7.685000000
H     1.355000000     1.284000000     8.588000000
C     0.750000000     2.491000000     6.928000000
H     1.581000000     3.179000000     7.058000000
C    -0.164000000     2.688000000     5.935000000
O    -0.290000000     3.887000000     5.355000000
C     0.193000000     4.142000000     4.070000000
C    -0.235000000     5.245000000     3.394000000
H    -1.032000000     5.907000000     3.724000000
C     0.413000000     5.655000000     2.213000000
O    -0.112000000     6.776000000     1.591000000
C    -0.061000000     7.053000000     0.267000000
C    -1.073000000     6.399000000    -0.541000000
H    -1.875000000     5.779000000    -0.150000000
C     0.933000000     7.915000000    -0.198000000
H     1.471000000     8.484000000     0.556000000
C     1.068000000     8.096000000    -1.547000000
H     1.721000000     8.854000000    -1.974000000
C     0.118000000     7.477000000    -2.362000000
H     0.092000000     7.759000000    -3.412000000
C    -0.919000000     6.631000000    -1.866000000
O    -1.859000000     6.061000000    -2.712000000
C    -1.637000000     4.932000000    -3.385000000
C    -2.673000000     4.481000000    -4.142000000
H    -3.546000000     5.127000000    -4.197000000
C    -2.543000000     3.249000000    -4.731000000
O    -3.622000000     2.808000000    -5.441000000
C    -4.153000000     1.598000000    -5.289000000
C    -4.223000000     0.737000000    -6.377000000
H    -3.919000000     1.108000000    -7.352000000
C    -4.680000000    -0.562000000    -6.197000000
H    -4.691000000    -1.196000000    -7.080000000
C    -4.961000000    -1.093000000    -4.951000000
H    -5.188000000    -2.145000000    -4.804000000
C    -4.911000000    -0.192000000    -3.884000000
C    -4.568000000     1.182000000    -3.988000000
H    -4.475000000     1.856000000    -3.140000000
C    -1.254000000     1.895000000     1.560000000
H    -1.442000000     2.383000000     2.513000000
C    -0.238000000     0.990000000     1.271000000
H     0.478000000     0.720000000     2.044000000
C    -0.059000000     0.417000000     0.024000000
H     0.684000000    -0.366000000    -0.224000000
C    -0.842000000     0.850000000    -1.034000000
H    -0.660000000     0.462000000    -2.033000000
C    -1.885000000     1.705000000    -0.786000000
H    -2.466000000     2.104000000    -1.613000000
C    -2.098000000     2.251000000     0.460000000
C    -3.229000000     3.317000000     0.645000000
O    -3.861000000     3.756000000    -0.304000000
O    -3.434000000     3.777000000     1.716000000
O    -4.459000000     8.142000000    -2.245000000
H    -5.359000000     8.206000000    -2.566000000
H    -4.500000000     7.489000000    -1.546000000
O    -4.475000000     6.373000000    -0.440000000
H    -4.280000000     5.442000000    -0.546000000
H    -4.100000000     6.601000000     0.411000000
O    -5.368000000     6.969000000     4.392000000
H    -6.279000000     6.704000000     4.265000000
H    -5.013000000     6.322000000     5.001000000
O    -4.908000000    -0.508000000     1.382000000
H    -5.481000000    -1.268000000     1.482000000
H    -4.062000000    -0.799000000     1.720000000
O    -1.987000000     9.428000000    -1.467000000
H    -2.883000000     9.688000000    -1.252000000
H    -2.013000000     8.471000000    -1.484000000
O    -5.878000000     1.542000000     0.107000000
H    -5.143000000     2.089000000    -0.172000000
H    -5.469000000     0.750000000     0.455000000
O    -4.551000000     2.492000000     5.936000000
H    -4.089000000     1.941000000     5.304000000
H    -5.413000000     2.085000000     6.022000000
O    -8.712000000     2.052000000     1.187000000
H    -8.748000000     1.611000000     2.035000000
H    -7.777000000     2.150000000     1.007000000
O    -5.922000000     4.451000000     2.264000000
H    -6.243000000     4.573000000     1.370000000
H    -5.011000000     4.178000000     2.156000000
O    -3.076000000     9.398000000     1.719000000
H    -2.368000000     9.481000000     2.359000000
H    -3.255000000     8.459000000     1.681000000
O    -3.457000000     6.589000000     2.011000000
H    -3.549000000     6.540000000     2.962000000
H    -3.201000000     5.705000000     1.748000000
O    -5.740000000     4.333000000    -2.296000000
H    -5.014000000     4.127000000    -1.707000000
H    -6.047000000     5.192000000    -2.006000000
O    -7.431000000     5.797000000     0.067000000
H    -7.832000000     6.060000000     0.896000000
H    -8.143000000     5.387000000    -0.424000000
O    -6.047000000     8.215000000     1.533000000
H    -5.462000000     7.688000000     0.990000000
H    -5.949000000     7.852000000     2.413000000
O    -2.353000000    -1.215000000     1.993000000
H    -1.852000000    -1.128000000     2.804000000
H    -1.947000000    -0.591000000     1.392000000
O    -7.800000000     4.085000000    -4.296000000
H    -7.122000000     4.142000000    -3.623000000
H    -7.461000000     3.448000000    -4.925000000
O    -3.620000000     1.475000000     3.408000000
H    -3.896000000     0.868000000     2.721000000
H    -3.644000000     2.336000000     2.990000000
O    -8.254000000     1.435000000    -1.980000000
H    -7.496000000     1.811000000    -1.531000000
H    -8.588000000     0.774000000    -1.373000000
O    -7.443000000     4.395000000     4.474000000
H    -7.481000000     3.481000000     4.756000000
H    -6.821000000     4.395000000     3.747000000
