215
-1438.72880
C    -0.352000000    -0.693000000     4.992000000
H     0.443000000     0.042000000     4.890000000
C    -0.230000000    -1.942000000     4.374000000
C    -1.271000000    -2.896000000     4.536000000
H    -1.266000000    -3.840000000     3.998000000
C     1.043000000    -2.242000000     3.553000000
O     2.214000000    -1.590000000     4.103000000
H     0.764000000    -1.818000000     2.577000000
O     1.236000000    -3.659000000     3.414000000
C     1.574000000    -3.993000000     2.089000000
C     0.568000000    -4.411000000     1.298000000
H    -0.450000000    -4.536000000     1.659000000
C     0.800000000    -4.573000000    -0.088000000
O    -0.294000000    -4.846000000    -0.843000000
C     2.121000000    -4.370000000    -0.607000000
C     2.306000000    -4.500000000    -2.031000000
H     3.301000000    -4.860000000    -2.302000000
C     1.981000000    -3.242000000    -2.799000000
C     3.025000000    -2.324000000    -3.095000000
H     4.034000000    -2.567000000    -2.770000000
H     1.646000000    -5.319000000    -2.324000000
C     3.148000000    -3.936000000     0.226000000
H     4.092000000    -3.668000000    -0.241000000
C     2.826000000    -3.672000000     1.569000000
C     3.973000000    -3.109000000     2.408000000
H     4.968000000    -3.380000000     2.049000000
H     3.890000000    -3.433000000     3.447000000
C     3.848000000    -1.603000000     2.290000000
C     4.615000000    -0.881000000     1.385000000
H     5.299000000    -1.332000000     0.670000000
C     3.099000000    -0.947000000     3.253000000
C     2.969000000     0.432000000     3.220000000
H     2.216000000     0.915000000     3.837000000
C     3.724000000     1.173000000     2.341000000
O     3.444000000     2.512000000     2.206000000
C     2.674000000     2.940000000     1.126000000
C     1.614000000     3.967000000     1.669000000
C     1.104000000     4.903000000     0.782000000
H     1.425000000     4.984000000    -0.254000000
C     1.156000000     3.941000000     2.986000000
H     1.555000000     3.233000000     3.708000000
O     3.442000000     3.525000000     0.069000000
H     2.029000000     2.149000000     0.715000000
C     4.595000000     0.503000000     1.478000000
C     5.360000000     1.267000000     0.394000000
H     6.254000000     0.725000000     0.076000000
H     5.909000000     2.127000000     0.784000000
C     4.551000000     1.552000000    -0.894000000
C     4.455000000     0.603000000    -1.890000000
H     4.980000000    -0.336000000    -1.736000000
C     3.721000000     2.683000000    -0.959000000
C     2.891000000     2.895000000    -2.100000000
H     2.165000000     3.704000000    -2.139000000
C     2.988000000     1.999000000    -3.154000000
O     2.049000000     2.168000000    -4.095000000
C     0.893000000     1.374000000    -3.881000000
C    -0.450000000     2.208000000    -4.040000000
C    -0.453000000     3.624000000    -4.136000000
H     0.473000000     4.187000000    -4.053000000
C    -1.644000000     1.555000000    -4.074000000
H    -1.650000000     0.476000000    -4.210000000
O     0.997000000     0.247000000    -4.770000000
H     1.005000000     1.038000000    -2.839000000
C     3.829000000     0.901000000    -3.085000000
C     3.835000000    -0.173000000    -4.164000000
H     4.708000000    -0.827000000    -4.227000000
H     3.553000000     0.219000000    -5.144000000
C     2.704000000    -1.119000000    -3.768000000
C     1.378000000    -0.890000000    -4.201000000
C     0.387000000    -1.823000000    -3.938000000
H    -0.626000000    -1.633000000    -4.282000000
C     0.664000000    -2.957000000    -3.247000000
O    -0.450000000    -3.725000000    -2.863000000
C    -0.924000000    -3.710000000    -1.522000000
H    -0.674000000    -2.782000000    -0.988000000
C    -2.454000000    -3.757000000    -1.541000000
C    -3.222000000    -4.169000000    -0.438000000
H    -2.702000000    -4.745000000     0.324000000
C    -3.159000000    -3.364000000    -2.687000000
H    -2.637000000    -3.133000000    -3.611000000
C    -4.501000000    -3.276000000    -2.660000000
O    -5.132000000    -2.923000000    -3.871000000
C    -5.273000000    -3.537000000    -1.490000000
H    -6.355000000    -3.526000000    -1.592000000
C    -4.604000000    -3.947000000    -0.353000000
O    -5.288000000    -4.190000000     0.779000000
C    -4.708000000    -4.696000000     1.923000000
C    -4.412000000    -3.807000000     2.989000000
H    -4.582000000    -2.739000000     2.881000000
C    -4.508000000    -6.013000000     2.097000000
H    -4.809000000    -6.708000000     1.317000000
C    -4.124000000    -6.550000000     3.362000000
H    -4.054000000    -7.611000000     3.588000000
C    -3.746000000    -5.720000000     4.366000000
H    -3.417000000    -6.127000000     5.319000000
C    -3.873000000    -4.302000000     4.150000000
O    -3.513000000    -3.451000000     5.157000000
C    -2.424000000    -2.525000000     5.157000000
C    -2.530000000    -1.339000000     5.869000000
H    -3.414000000    -1.139000000     6.470000000
C    -1.451000000    -0.465000000     5.842000000
O    -1.601000000     0.784000000     6.523000000
C    -0.646000000     1.764000000     6.470000000
C    -0.980000000     2.961000000     5.779000000
H    -1.907000000     2.912000000     5.214000000
C     0.495000000     1.661000000     7.231000000
H     0.717000000     0.726000000     7.738000000
C     1.370000000     2.747000000     7.241000000
H     2.301000000     2.828000000     7.796000000
C     1.169000000     3.879000000     6.435000000
H     1.829000000     4.740000000     6.368000000
C    -0.044000000     3.993000000     5.697000000
O    -0.254000000     4.924000000     4.673000000
C     0.268000000     4.926000000     3.389000000
C    -0.269000000     5.744000000     2.489000000
H    -1.081000000     6.426000000     2.727000000
C     0.114000000     5.783000000     1.158000000
O    -0.503000000     6.681000000     0.272000000
C    -0.344000000     6.793000000    -1.090000000
C    -1.179000000     6.129000000    -1.943000000
H    -1.895000000     5.462000000    -1.468000000
C     0.664000000     7.578000000    -1.593000000
H     1.257000000     8.189000000    -0.916000000
C     0.803000000     7.765000000    -2.985000000
H     1.604000000     8.368000000    -3.405000000
C    -0.107000000     7.139000000    -3.849000000
H     0.213000000     7.284000000    -4.878000000
C    -1.088000000     6.344000000    -3.342000000
O    -1.792000000     5.607000000    -4.206000000
C    -1.660000000     4.306000000    -4.219000000
C    -2.857000000     3.639000000    -4.238000000
H    -3.790000000     4.193000000    -4.305000000
C    -2.898000000     2.280000000    -4.097000000
O    -4.102000000     1.656000000    -4.297000000
C    -4.251000000     0.366000000    -4.847000000
C    -3.606000000     0.123000000    -6.079000000
H    -3.204000000     0.945000000    -6.666000000
C    -3.700000000    -1.130000000    -6.696000000
H    -3.149000000    -1.235000000    -7.628000000
C    -4.266000000    -2.123000000    -5.991000000
H    -4.200000000    -3.078000000    -6.505000000
C    -4.672000000    -1.911000000    -4.643000000
C    -4.661000000    -0.653000000    -4.041000000
H    -5.045000000    -0.420000000    -3.051000000
C    -1.329000000     1.515000000     1.938000000
H    -1.390000000     1.803000000     2.985000000
C    -0.238000000     0.690000000     1.610000000
H     0.417000000     0.435000000     2.439000000
C    -0.100000000     0.244000000     0.343000000
H     0.722000000    -0.491000000     0.194000000
C    -0.980000000     0.562000000    -0.632000000
H    -1.005000000     0.229000000    -1.666000000
C    -2.050000000     1.436000000    -0.394000000
H    -2.692000000     1.804000000    -1.191000000
C    -2.260000000     1.856000000     0.943000000
C    -3.411000000     2.719000000     1.250000000
O    -4.208000000     3.067000000     0.380000000
O    -3.459000000     3.119000000     2.415000000
O    -4.835000000     4.358000000    -1.988000000
H    -4.526000000     3.715000000    -1.350000000
H    -4.608000000     5.205000000    -1.604000000
O    -5.376000000     4.735000000     3.389000000
H    -4.713000000     4.094000000     3.133000000
H    -5.157000000     4.957000000     4.294000000
O    -8.587000000     1.626000000     2.171000000
H    -8.399000000     1.936000000     3.057000000
H    -7.860000000     1.041000000     1.962000000
O    -7.443000000     0.644000000    -2.548000000
H    -7.024000000     0.770000000    -1.696000000
H    -7.860000000    -0.216000000    -2.485000000
O    -5.839000000     0.511000000     6.043000000
H    -6.562000000    -0.080000000     5.830000000
H    -5.664000000     0.979000000     5.227000000
O    -6.582000000    -0.279000000     2.556000000
H    -5.732000000     0.122000000     2.735000000
H    -6.911000000    -0.538000000     3.417000000
O    -8.868000000     3.673000000    -0.260000000
H    -8.856000000     2.840000000    -0.730000000
H    -8.224000000     3.563000000     0.440000000
O    -7.067000000     3.318000000    -3.251000000
H    -7.111000000     2.383000000    -3.053000000
H    -6.216000000     3.595000000    -2.911000000
O    -3.925000000     7.134000000     0.993000000
H    -4.392000000     6.493000000     1.529000000
H    -4.069000000     6.843000000     0.092000000
O    -6.413000000     4.161000000     0.957000000
H    -6.084000000     4.336000000     1.839000000
H    -5.647000000     3.855000000     0.472000000
O    -6.015000000     0.978000000    -0.307000000
H    -5.310000000     1.588000000    -0.087000000
H    -6.269000000     0.593000000     0.531000000
O    -4.739000000     8.167000000     3.812000000
H    -4.645000000     9.108000000     3.960000000
H    -4.428000000     8.033000000     2.917000000
O    -4.608000000     6.024000000     5.761000000
H    -3.672000000     5.941000000     5.943000000
H    -4.764000000     6.968000000     5.735000000
O    -7.722000000     2.926000000     4.545000000
H    -6.937000000     3.337000000     4.183000000
H    -7.576000000     2.922000000     5.491000000
O    -4.090000000     7.111000000    -1.806000000
H    -4.336000000     6.951000000    -2.717000000
H    -3.615000000     7.942000000    -1.829000000
O    -4.597000000     1.382000000     3.813000000
H    -3.953000000     0.942000000     4.367000000
H    -4.099000000     2.065000000     3.364000000
O    -7.748000000     5.637000000    -1.867000000
H    -7.542000000     5.326000000    -0.985000000
H    -7.613000000     4.873000000    -2.428000000
O    -6.281000000     4.002000000     6.892000000
H    -5.343000000     4.130000000     6.749000000
H    -6.618000000     4.880000000     7.072000000
O    -7.443000000     7.102000000     3.363000000
H    -6.570000000     6.798000000     3.612000000
H    -7.456000000     8.025000000     3.615000000
