215
-1436.86599
C    -0.725000000    -1.715000000     5.290000000
H     0.050000000    -1.044000000     5.653000000
C    -0.494000000    -2.594000000     4.193000000
C    -1.589000000    -3.201000000     3.636000000
H    -1.398000000    -3.799000000     2.748000000
C     0.844000000    -2.510000000     3.425000000
O     1.917000000    -1.989000000     4.183000000
H     0.712000000    -1.911000000     2.512000000
O     1.174000000    -3.772000000     3.037000000
C     1.696000000    -3.946000000     1.811000000
C     0.845000000    -4.447000000     0.784000000
H    -0.205000000    -4.665000000     0.960000000
C     1.229000000    -4.429000000    -0.569000000
O     0.293000000    -4.721000000    -1.509000000
C     2.481000000    -3.990000000    -0.961000000
C     2.947000000    -3.988000000    -2.398000000
H     4.020000000    -4.179000000    -2.468000000
C     2.571000000    -2.701000000    -3.102000000
C     3.533000000    -1.691000000    -3.060000000
H     4.388000000    -1.782000000    -2.394000000
H     2.461000000    -4.808000000    -2.931000000
C     3.313000000    -3.503000000     0.035000000
H     4.345000000    -3.336000000    -0.263000000
C     2.992000000    -3.458000000     1.388000000
C     4.024000000    -3.081000000     2.475000000
H     5.034000000    -3.187000000     2.072000000
H     3.854000000    -3.730000000     3.337000000
C     3.802000000    -1.597000000     2.775000000
C     4.573000000    -0.682000000     2.044000000
H     5.379000000    -1.190000000     1.519000000
C     2.749000000    -1.128000000     3.536000000
C     2.556000000     0.231000000     3.705000000
H     1.708000000     0.653000000     4.238000000
C     3.323000000     1.127000000     2.977000000
O     2.862000000     2.400000000     3.018000000
C     2.202000000     2.902000000     1.871000000
C     0.934000000     3.702000000     2.244000000
C     0.430000000     4.691000000     1.375000000
H     0.946000000     4.872000000     0.436000000
C     0.235000000     3.440000000     3.407000000
H     0.566000000     2.610000000     4.026000000
O     3.098000000     3.670000000     1.048000000
H     1.863000000     2.076000000     1.228000000
C     4.341000000     0.694000000     2.115000000
C     5.187000000     1.646000000     1.331000000
H     6.196000000     1.257000000     1.179000000
H     5.259000000     2.521000000     1.981000000
C     4.517000000     2.043000000     0.024000000
C     4.759000000     1.266000000    -1.156000000
H     5.490000000     0.462000000    -1.176000000
C     3.679000000     3.103000000    -0.100000000
C     3.040000000     3.359000000    -1.298000000
H     2.185000000     4.018000000    -1.169000000
C     3.198000000     2.492000000    -2.365000000
O     2.448000000     2.711000000    -3.515000000
C     1.292000000     1.905000000    -3.748000000
C     0.000000000     2.627000000    -4.135000000
C    -0.102000000     3.949000000    -3.826000000
H     0.718000000     4.451000000    -3.319000000
C    -1.166000000     1.974000000    -4.599000000
H    -1.135000000     0.905000000    -4.792000000
O     1.606000000     0.958000000    -4.738000000
H     1.128000000     1.426000000    -2.771000000
C     4.131000000     1.504000000    -2.307000000
C     4.398000000     0.664000000    -3.553000000
H     5.396000000     0.224000000    -3.599000000
H     4.298000000     1.310000000    -4.428000000
C     3.318000000    -0.404000000    -3.612000000
C     2.038000000    -0.226000000    -4.191000000
C     1.062000000    -1.233000000    -4.207000000
H     0.156000000    -1.102000000    -4.792000000
C     1.318000000    -2.491000000    -3.669000000
O     0.168000000    -3.305000000    -3.517000000
C    -0.323000000    -3.616000000    -2.145000000
H    -0.129000000    -2.739000000    -1.510000000
C    -1.863000000    -3.729000000    -2.202000000
C    -2.529000000    -4.717000000    -1.494000000
H    -1.947000000    -5.298000000    -0.784000000
C    -2.673000000    -2.911000000    -2.996000000
H    -2.125000000    -2.179000000    -3.585000000
C    -4.093000000    -3.017000000    -3.086000000
O    -4.798000000    -2.126000000    -3.915000000
C    -4.710000000    -3.997000000    -2.295000000
H    -5.779000000    -4.152000000    -2.408000000
C    -3.922000000    -4.823000000    -1.527000000
O    -4.536000000    -5.740000000    -0.692000000
C    -4.215000000    -5.700000000     0.641000000
C    -4.301000000    -4.584000000     1.391000000
H    -4.606000000    -3.609000000     1.021000000
C    -4.079000000    -6.946000000     1.242000000
H    -4.073000000    -7.894000000     0.710000000
C    -3.686000000    -7.044000000     2.558000000
H    -3.406000000    -8.015000000     2.957000000
C    -3.576000000    -5.942000000     3.377000000
H    -3.270000000    -6.005000000     4.418000000
C    -3.915000000    -4.723000000     2.782000000
O    -4.004000000    -3.617000000     3.540000000
C    -2.871000000    -3.125000000     4.163000000
C    -3.078000000    -2.387000000     5.376000000
H    -4.058000000    -2.263000000     5.829000000
C    -2.032000000    -1.605000000     5.825000000
O    -2.312000000    -0.595000000     6.717000000
C    -1.710000000     0.614000000     6.710000000
C    -2.052000000     1.648000000     5.824000000
H    -2.871000000     1.524000000     5.121000000
C    -0.557000000     0.727000000     7.500000000
H    -0.139000000    -0.072000000     8.108000000
C     0.077000000     1.995000000     7.576000000
H     0.926000000     2.176000000     8.230000000
C    -0.269000000     3.050000000     6.693000000
H     0.339000000     3.948000000     6.613000000
C    -1.339000000     2.871000000     5.779000000
O    -1.716000000     3.800000000     4.858000000
C    -0.935000000     4.151000000     3.770000000
C    -1.343000000     5.197000000     2.941000000
H    -2.178000000     5.808000000     3.274000000
C    -0.705000000     5.438000000     1.738000000
O    -1.205000000     6.521000000     0.965000000
C    -0.820000000     6.977000000    -0.292000000
C    -1.337000000     6.356000000    -1.399000000
H    -2.054000000     5.543000000    -1.325000000
C     0.054000000     8.060000000    -0.369000000
H     0.325000000     8.557000000     0.559000000
C     0.323000000     8.530000000    -1.618000000
H     0.892000000     9.450000000    -1.718000000
C    -0.142000000     7.896000000    -2.774000000
H     0.077000000     8.274000000    -3.770000000
C    -0.950000000     6.765000000    -2.620000000
O    -1.355000000     6.111000000    -3.778000000
C    -1.258000000     4.750000000    -4.089000000
C    -2.361000000     4.083000000    -4.681000000
H    -3.269000000     4.652000000    -4.863000000
C    -2.309000000     2.743000000    -4.866000000
O    -3.447000000     2.190000000    -5.336000000
C    -3.590000000     0.896000000    -5.559000000
C    -3.091000000     0.358000000    -6.761000000
H    -2.674000000     1.052000000    -7.486000000
C    -3.155000000    -0.996000000    -6.969000000
H    -2.934000000    -1.455000000    -7.930000000
C    -3.795000000    -1.800000000    -6.004000000
H    -3.903000000    -2.859000000    -6.224000000
C    -4.299000000    -1.247000000    -4.870000000
C    -4.198000000     0.107000000    -4.602000000
H    -4.557000000     0.438000000    -3.631000000
C    -2.212000000     1.663000000     1.000000000
H    -2.405000000     2.235000000     1.903000000
C    -0.979000000     0.990000000     0.996000000
H    -0.322000000     0.966000000     1.862000000
C    -0.569000000     0.347000000    -0.225000000
H     0.399000000    -0.222000000    -0.241000000
C    -1.344000000     0.409000000    -1.369000000
H    -1.047000000    -0.068000000    -2.301000000
C    -2.464000000     1.228000000    -1.367000000
H    -3.076000000     1.285000000    -2.264000000
C    -2.939000000     1.842000000    -0.210000000
C    -4.112000000     2.680000000    -0.268000000
O    -4.784000000     2.697000000    -1.235000000
O    -4.404000000     3.260000000     0.751000000
O    -8.869000000     3.526000000    -2.377000000
H    -9.479000000     2.789000000    -2.425000000
H    -8.091000000     3.223000000    -2.845000000
O    -9.012000000     6.313000000     0.583000000
H    -8.200000000     5.832000000     0.427000000
H    -9.266000000     6.072000000     1.474000000
O    -6.042000000     6.541000000    -2.956000000
H    -6.081000000     5.610000000    -3.173000000
H    -5.734000000     6.563000000    -2.050000000
O    -4.548000000    -0.342000000     2.817000000
H    -4.013000000    -0.912000000     2.265000000
H    -4.889000000    -0.920000000     3.498000000
O    -6.522000000     0.661000000     0.038000000
H    -6.241000000     0.905000000     0.920000000
H    -6.086000000     1.292000000    -0.536000000
O    -7.237000000     1.536000000    -4.304000000
H    -7.185000000     1.141000000    -5.174000000
H    -8.128000000     1.349000000    -4.010000000
O    -4.830000000     3.907000000     5.186000000
H    -4.858000000     3.377000000     4.390000000
H    -5.721000000     3.864000000     5.534000000
O    -7.054000000     3.606000000     0.369000000
H    -7.411000000     2.946000000    -0.226000000
H    -6.128000000     3.667000000     0.131000000
O    -4.553000000     6.394000000     3.913000000
H    -5.333000000     6.135000000     3.422000000
H    -4.286000000     5.598000000     4.373000000
O    -6.841000000    -1.952000000     0.761000000
H    -6.828000000    -0.997000000     0.696000000
H    -6.740000000    -2.130000000     1.696000000
O    -5.024000000     5.955000000    -0.066000000
H    -5.081000000     5.935000000     0.889000000
H    -4.624000000     5.118000000    -0.300000000
O    -5.909000000     3.751000000    -3.400000000
H    -5.477000000     3.456000000    -2.599000000
H    -6.105000000     2.945000000    -3.877000000
O    -4.568000000     8.581000000    -0.459000000
H    -5.466000000     8.875000000    -0.304000000
H    -4.561000000     7.669000000    -0.166000000
O    -2.917000000    -1.576000000     1.028000000
H    -2.391000000    -0.778000000     1.079000000
H    -3.451000000    -1.461000000     0.241000000
O    -5.437000000     2.285000000     2.934000000
H    -4.981000000     1.443000000     2.954000000
H    -5.143000000     2.696000000     2.121000000
O    -8.009000000     2.256000000     3.687000000
H    -7.111000000     2.353000000     3.369000000
H    -8.092000000     2.917000000     4.374000000
O    -9.051000000    -1.115000000    -0.652000000
H    -8.627000000    -0.278000000    -0.843000000
H    -8.353000000    -1.659000000    -0.287000000
O    -9.222000000     0.336000000     2.051000000
H    -8.819000000     0.928000000     1.416000000
H    -9.613000000    -0.356000000     1.518000000
O    -6.651000000     5.653000000     2.191000000
H    -7.257000000     5.450000000     2.903000000
H    -6.631000000     4.858000000     1.659000000
