215
-1398.77118
C    -0.653000000    -1.049000000     4.229000000
H    -0.003000000    -0.182000000     4.145000000
C    -0.269000000    -2.312000000     3.808000000
C    -1.227000000    -3.342000000     3.865000000
H    -0.999000000    -4.405000000     3.832000000
C     1.103000000    -2.373000000     3.226000000
O     2.081000000    -1.787000000     4.087000000
H     1.110000000    -1.845000000     2.262000000
O     1.451000000    -3.750000000     3.059000000
C     1.885000000    -4.040000000     1.821000000
C     0.959000000    -4.449000000     0.889000000
H    -0.080000000    -4.491000000     1.207000000
C     1.292000000    -4.428000000    -0.421000000
O     0.362000000    -4.600000000    -1.370000000
C     2.614000000    -4.214000000    -0.803000000
C     2.841000000    -4.157000000    -2.371000000
H     3.887000000    -4.266000000    -2.668000000
C     2.449000000    -2.825000000    -3.021000000
C     3.362000000    -1.774000000    -2.972000000
H     4.276000000    -1.978000000    -2.421000000
H     2.477000000    -5.061000000    -2.863000000
C     3.566000000    -3.756000000     0.155000000
H     4.567000000    -3.445000000    -0.132000000
C     3.168000000    -3.656000000     1.484000000
C     4.099000000    -3.104000000     2.579000000
H     5.145000000    -3.418000000     2.572000000
H     3.767000000    -3.517000000     3.533000000
C     3.945000000    -1.606000000     2.644000000
C     4.714000000    -0.715000000     1.841000000
H     5.560000000    -1.010000000     1.226000000
C     3.000000000    -1.028000000     3.511000000
C     2.688000000     0.301000000     3.577000000
H     1.794000000     0.698000000     4.051000000
C     3.368000000     1.113000000     2.692000000
O     3.111000000     2.470000000     2.727000000
C     2.248000000     2.995000000     1.643000000
C     1.247000000     4.023000000     2.219000000
C     0.666000000     5.066000000     1.479000000
H     0.852000000     5.006000000     0.410000000
C     0.896000000     3.989000000     3.560000000
H     1.317000000     3.262000000     4.250000000
O     3.056000000     3.731000000     0.718000000
H     1.676000000     2.160000000     1.211000000
C     4.313000000     0.599000000     1.812000000
C     5.084000000     1.583000000     0.930000000
H     6.130000000     1.360000000     0.710000000
H     5.155000000     2.557000000     1.419000000
C     4.405000000     1.943000000    -0.370000000
C     4.701000000     1.242000000    -1.546000000
H     5.332000000     0.385000000    -1.326000000
C     3.578000000     3.082000000    -0.421000000
C     3.011000000     3.435000000    -1.681000000
H     2.197000000     4.156000000    -1.676000000
C     3.150000000     2.605000000    -2.786000000
O     2.235000000     2.769000000    -3.817000000
C     1.139000000     1.816000000    -3.871000000
C    -0.168000000     2.505000000    -4.097000000
C    -0.437000000     3.759000000    -3.520000000
H     0.278000000     4.237000000    -2.855000000
C    -1.159000000     1.882000000    -4.880000000
H    -1.011000000     0.866000000    -5.237000000
O     1.452000000     0.730000000    -4.720000000
H     1.024000000     1.341000000    -2.886000000
C     4.018000000     1.536000000    -2.731000000
C     4.187000000     0.471000000    -3.737000000
H     5.180000000     0.016000000    -3.697000000
H     4.085000000     0.978000000    -4.698000000
C     3.066000000    -0.533000000    -3.541000000
C     1.884000000    -0.415000000    -4.234000000
C     0.987000000    -1.443000000    -4.265000000
H     0.057000000    -1.210000000    -4.776000000
C     1.232000000    -2.639000000    -3.611000000
O     0.140000000    -3.435000000    -3.467000000
C    -0.381000000    -3.581000000    -2.102000000
H    -0.278000000    -2.677000000    -1.484000000
C    -1.908000000    -3.733000000    -1.979000000
C    -2.582000000    -4.696000000    -1.211000000
H    -2.074000000    -5.295000000    -0.459000000
C    -2.623000000    -2.778000000    -2.709000000
H    -2.097000000    -2.032000000    -3.300000000
C    -3.993000000    -2.856000000    -2.695000000
O    -4.752000000    -2.111000000    -3.522000000
C    -4.627000000    -3.717000000    -1.817000000
H    -5.712000000    -3.703000000    -1.760000000
C    -3.929000000    -4.637000000    -1.087000000
O    -4.566000000    -5.375000000    -0.076000000
C    -4.118000000    -5.673000000     1.210000000
C    -3.773000000    -4.721000000     2.169000000
H    -3.682000000    -3.691000000     1.832000000
C    -4.305000000    -7.045000000     1.619000000
H    -4.733000000    -7.793000000     0.956000000
C    -4.169000000    -7.382000000     2.961000000
H    -4.387000000    -8.405000000     3.258000000
C    -3.795000000    -6.445000000     3.956000000
H    -3.613000000    -6.647000000     5.008000000
C    -3.528000000    -5.108000000     3.533000000
O    -3.300000000    -4.192000000     4.520000000
C    -2.494000000    -3.067000000     4.352000000
C    -2.881000000    -1.754000000     4.677000000
H    -3.890000000    -1.556000000     5.030000000
C    -1.941000000    -0.803000000     4.646000000
O    -2.347000000     0.504000000     4.905000000
C    -1.695000000     1.387000000     5.778000000
C    -1.366000000     2.640000000     5.296000000
H    -1.614000000     2.910000000     4.273000000
C    -1.266000000     1.017000000     7.070000000
H    -1.527000000     0.042000000     7.476000000
C    -0.410000000     1.924000000     7.739000000
H     0.024000000     1.617000000     8.687000000
C    -0.134000000     3.172000000     7.237000000
H     0.388000000     3.874000000     7.882000000
C    -0.715000000     3.575000000     6.064000000
O    -0.375000000     4.792000000     5.522000000
C     0.073000000     4.946000000     4.168000000
C    -0.427000000     5.975000000     3.416000000
H    -1.014000000     6.749000000     3.903000000
C    -0.218000000     5.997000000     2.026000000
O    -0.777000000     7.031000000     1.251000000
C    -0.630000000     7.071000000    -0.129000000
C    -1.426000000     6.235000000    -0.873000000
H    -2.044000000     5.468000000    -0.413000000
C     0.234000000     7.947000000    -0.678000000
H     0.766000000     8.728000000    -0.140000000
C     0.521000000     7.886000000    -2.075000000
H     1.141000000     8.610000000    -2.597000000
C    -0.284000000     7.077000000    -2.765000000
H    -0.292000000     7.094000000    -3.852000000
C    -1.236000000     6.238000000    -2.240000000
O    -2.045000000     5.481000000    -3.175000000
C    -1.672000000     4.313000000    -3.765000000
C    -2.645000000     3.775000000    -4.642000000
H    -3.559000000     4.358000000    -4.720000000
C    -2.419000000     2.472000000    -5.128000000
O    -3.316000000     1.791000000    -5.912000000
C    -3.714000000     0.473000000    -5.925000000
C    -3.912000000    -0.186000000    -7.172000000
H    -3.681000000     0.264000000    -8.134000000
C    -4.387000000    -1.558000000    -7.099000000
H    -4.507000000    -2.186000000    -7.978000000
C    -4.634000000    -2.131000000    -5.835000000
H    -4.976000000    -3.161000000    -5.781000000
C    -4.442000000    -1.447000000    -4.657000000
C    -3.978000000    -0.161000000    -4.699000000
H    -3.931000000     0.398000000    -3.768000000
C    -1.762000000     2.048000000     1.108000000
H    -1.930000000     2.349000000     2.139000000
C    -0.628000000     1.253000000     0.831000000
H    -0.009000000     1.066000000     1.705000000
C    -0.457000000     0.696000000    -0.449000000
H     0.328000000    -0.117000000    -0.684000000
C    -1.283000000     1.059000000    -1.498000000
H    -1.102000000     0.650000000    -2.488000000
C    -2.414000000     1.834000000    -1.219000000
H    -3.024000000     2.045000000    -2.094000000
C    -2.691000000     2.338000000     0.048000000
C    -4.010000000     3.046000000     0.280000000
O    -4.919000000     3.015000000    -0.531000000
O    -4.238000000     3.640000000     1.261000000
O    -8.188000000     6.640000000     1.448000000
H    -7.645000000     5.903000000     1.169000000
H    -9.075000000     6.283000000     1.487000000
O    -7.395000000     7.140000000    -1.979000000
H    -7.948000000     6.382000000    -1.791000000
H    -6.510000000     6.852000000    -1.753000000
O    -4.833000000     6.867000000    -4.195000000
H    -5.433000000     6.513000000    -4.852000000
H    -4.798000000     6.194000000    -3.516000000
O    -5.062000000     5.667000000    -1.229000000
H    -5.086000000     4.770000000    -0.896000000
H    -4.536000000     6.147000000    -0.588000000
O    -5.518000000     6.346000000     3.430000000
H    -5.788000000     5.523000000     3.838000000
H    -6.298000000     6.900000000     3.471000000
O    -5.002000000    -0.616000000     1.731000000
H    -4.182000000    -0.855000000     1.297000000
H    -5.360000000    -1.448000000     2.040000000
O    -6.485000000     0.872000000    -0.153000000
H    -6.073000000     0.394000000     0.567000000
H    -5.991000000     1.690000000    -0.210000000
O    -9.787000000     2.599000000     1.614000000
H    -9.407000000     1.942000000     2.198000000
H    -9.048000000     3.153000000     1.363000000
O    -7.528000000     4.083000000     0.504000000
H    -7.793000000     4.352000000    -0.376000000
H    -6.736000000     3.563000000     0.367000000
O    -2.818000000     8.585000000     2.388000000
H    -1.966000000     8.579000000     2.825000000
H    -2.981000000     7.668000000     2.168000000
O    -3.464000000     6.066000000     1.898000000
H    -4.162000000     6.135000000     2.550000000
H    -3.511000000     5.160000000     1.592000000
O    -5.676000000     2.880000000    -3.275000000
H    -5.407000000     2.978000000    -2.361000000
H    -6.545000000     2.481000000    -3.227000000
O    -8.529000000     4.302000000    -1.891000000
H    -8.850000000     4.927000000    -2.542000000
H    -8.315000000     3.518000000    -2.397000000
O    -2.348000000    -1.037000000     1.393000000
H    -2.055000000    -0.125000000     1.383000000
H    -1.631000000    -1.522000000     0.985000000
O    -5.161000000     2.020000000     2.997000000
H    -4.850000000     1.214000000     2.585000000
H    -4.800000000     2.721000000     2.454000000
O    -6.192000000    -0.500000000     4.083000000
H    -6.226000000     0.451000000     3.983000000
H    -5.887000000    -0.820000000     3.234000000
O    -6.908000000    -0.293000000    -2.773000000
H    -6.163000000    -0.890000000    -2.834000000
H    -6.905000000     0.003000000    -1.862000000
O    -9.137000000     0.810000000    -0.425000000
H    -9.555000000     1.453000000     0.148000000
H    -8.203000000     0.891000000    -0.233000000
O    -7.153000000     4.017000000     4.136000000
H    -7.333000000     3.454000000     4.888000000
H    -6.574000000     3.497000000     3.579000000
