215
-1448.75281
C    -1.694000000    -0.436000000     5.275000000
H    -0.863000000    -0.038000000     5.851000000
C    -1.529000000    -1.545000000     4.369000000
C    -2.659000000    -2.053000000     3.724000000
H    -2.609000000    -2.726000000     2.871000000
C    -0.169000000    -1.911000000     3.894000000
O     0.838000000    -1.562000000     4.848000000
H    -0.023000000    -1.375000000     2.945000000
O    -0.078000000    -3.354000000     3.550000000
C     0.558000000    -3.822000000     2.460000000
C    -0.269000000    -4.309000000     1.453000000
H    -1.336000000    -4.405000000     1.636000000
C     0.257000000    -4.623000000     0.267000000
O    -0.566000000    -4.856000000    -0.846000000
C     1.672000000    -4.571000000     0.100000000
C     2.376000000    -4.904000000    -1.171000000
H     3.398000000    -5.253000000    -1.011000000
C     2.409000000    -3.655000000    -2.081000000
C     3.549000000    -2.853000000    -1.943000000
H     4.357000000    -3.130000000    -1.271000000
H     1.922000000    -5.711000000    -1.750000000
C     2.509000000    -4.296000000     1.212000000
H     3.592000000    -4.330000000     1.120000000
C     1.897000000    -3.903000000     2.401000000
C     2.786000000    -3.451000000     3.544000000
H     3.820000000    -3.758000000     3.370000000
H     2.478000000    -3.854000000     4.511000000
C     2.971000000    -1.960000000     3.585000000
C     4.007000000    -1.337000000     2.834000000
H     4.634000000    -1.932000000     2.175000000
C     2.033000000    -1.126000000     4.266000000
C     2.175000000     0.223000000     4.315000000
H     1.460000000     0.874000000     4.811000000
C     3.114000000     0.822000000     3.448000000
O     2.994000000     2.233000000     3.367000000
C     2.655000000     2.808000000     2.076000000
C     1.580000000     3.995000000     2.160000000
C     1.722000000     5.152000000     1.384000000
H     2.621000000     5.279000000     0.786000000
C     0.516000000     3.996000000     3.078000000
H     0.512000000     3.221000000     3.840000000
O     3.809000000     3.182000000     1.287000000
H     2.240000000     1.944000000     1.536000000
C     4.031000000     0.056000000     2.734000000
C     5.193000000     0.819000000     2.013000000
H     6.113000000     0.235000000     1.942000000
H     5.439000000     1.775000000     2.480000000
C     4.772000000     1.072000000     0.633000000
C     5.050000000     0.123000000    -0.364000000
H     5.460000000    -0.873000000    -0.217000000
C     4.177000000     2.272000000     0.264000000
C     3.675000000     2.451000000    -1.021000000
H     3.206000000     3.421000000    -1.167000000
C     3.882000000     1.500000000    -2.008000000
O     3.089000000     1.755000000    -3.183000000
C     1.993000000     0.857000000    -3.553000000
C     0.981000000     1.753000000    -4.242000000
C     0.739000000     3.094000000    -3.818000000
H     1.229000000     3.437000000    -2.911000000
C     0.194000000     1.270000000    -5.265000000
H     0.442000000     0.300000000    -5.688000000
O     2.394000000    -0.291000000    -4.369000000
H     1.664000000     0.492000000    -2.568000000
C     4.465000000     0.300000000    -1.661000000
C     4.717000000    -0.771000000    -2.677000000
H     5.640000000    -1.282000000    -2.395000000
H     4.946000000    -0.312000000    -3.642000000
C     3.518000000    -1.724000000    -2.775000000
C     2.475000000    -1.465000000    -3.692000000
C     1.408000000    -2.318000000    -3.815000000
H     0.580000000    -2.063000000    -4.472000000
C     1.414000000    -3.404000000    -2.959000000
O     0.279000000    -4.213000000    -2.934000000
C    -0.710000000    -3.922000000    -1.930000000
H    -0.545000000    -2.919000000    -1.510000000
C    -2.171000000    -3.871000000    -2.389000000
C    -3.232000000    -4.346000000    -1.529000000
H    -2.995000000    -4.966000000    -0.668000000
C    -2.541000000    -3.127000000    -3.502000000
H    -1.743000000    -2.894000000    -4.203000000
C    -3.848000000    -2.908000000    -3.829000000
O    -4.226000000    -2.054000000    -4.800000000
C    -4.848000000    -3.371000000    -2.951000000
H    -5.902000000    -3.245000000    -3.185000000
C    -4.562000000    -4.051000000    -1.742000000
O    -5.530000000    -4.526000000    -0.939000000
C    -5.352000000    -4.486000000     0.392000000
C    -5.336000000    -3.220000000     1.049000000
H    -5.441000000    -2.290000000     0.495000000
C    -5.127000000    -5.623000000     1.088000000
H    -4.996000000    -6.598000000     0.625000000
C    -4.982000000    -5.549000000     2.468000000
H    -4.902000000    -6.509000000     2.970000000
C    -4.924000000    -4.334000000     3.102000000
H    -4.807000000    -4.374000000     4.182000000
C    -5.098000000    -3.146000000     2.418000000
O    -5.057000000    -1.904000000     3.153000000
C    -3.920000000    -1.489000000     3.915000000
C    -4.111000000    -0.411000000     4.844000000
H    -5.085000000     0.017000000     5.065000000
C    -2.960000000     0.115000000     5.485000000
O    -3.253000000     1.171000000     6.285000000
C    -2.407000000     2.273000000     6.289000000
C    -2.391000000     3.089000000     5.170000000
H    -2.920000000     2.873000000     4.244000000
C    -1.653000000     2.660000000     7.366000000
H    -1.704000000     2.115000000     8.306000000
C    -0.775000000     3.762000000     7.282000000
H    -0.106000000     4.050000000     8.088000000
C    -0.832000000     4.585000000     6.192000000
H    -0.148000000     5.430000000     6.156000000
C    -1.561000000     4.185000000     5.092000000
O    -1.553000000     4.962000000     3.967000000
C    -0.424000000     5.039000000     3.139000000
C    -0.369000000     6.040000000     2.213000000
H    -1.120000000     6.822000000     2.296000000
C     0.677000000     6.098000000     1.321000000
O     0.829000000     7.180000000     0.430000000
C     0.758000000     6.970000000    -0.923000000
C    -0.125000000     6.127000000    -1.491000000
H    -0.810000000     5.518000000    -0.905000000
C     1.433000000     7.884000000    -1.727000000
H     2.063000000     8.564000000    -1.160000000
C     1.480000000     7.803000000    -3.138000000
H     2.032000000     8.498000000    -3.766000000
C     0.674000000     6.815000000    -3.738000000
H     0.624000000     6.729000000    -4.820000000
C    -0.116000000     5.908000000    -2.960000000
O    -0.836000000     4.953000000    -3.559000000
C    -0.335000000     3.891000000    -4.299000000
C    -1.181000000     3.308000000    -5.239000000
H    -2.125000000     3.775000000    -5.507000000
C    -0.882000000     2.076000000    -5.757000000
O    -1.710000000     1.545000000    -6.740000000
C    -2.184000000     0.291000000    -6.626000000
C    -1.808000000    -0.509000000    -7.710000000
H    -1.255000000    -0.108000000    -8.555000000
C    -2.129000000    -1.861000000    -7.775000000
H    -1.896000000    -2.469000000    -8.646000000
C    -2.958000000    -2.382000000    -6.803000000
H    -3.206000000    -3.439000000    -6.856000000
C    -3.391000000    -1.544000000    -5.780000000
C    -2.993000000    -0.160000000    -5.613000000
H    -3.237000000     0.522000000    -4.803000000
C    -1.536000000     2.243000000     0.448000000
H    -1.527000000     3.330000000     0.427000000
C    -0.401000000     1.470000000     0.213000000
H     0.559000000     1.944000000     0.025000000
C    -0.484000000     0.048000000     0.193000000
H     0.466000000    -0.491000000     0.062000000
C    -1.708000000    -0.592000000     0.440000000
H    -1.820000000    -1.666000000     0.313000000
C    -2.837000000     0.166000000     0.728000000
H    -3.776000000    -0.362000000     0.875000000
C    -2.735000000     1.561000000     0.814000000
C    -4.030000000     2.364000000     0.973000000
O    -5.046000000     1.723000000     0.791000000
O    -4.067000000     3.488000000     1.356000000
O    -9.155000000     3.683000000    -2.782000000
H    -8.757000000     4.513000000    -3.044000000
H    -8.417000000     3.142000000    -2.500000000
O    -6.507000000     7.827000000     0.134000000
H    -7.185000000     7.432000000    -0.415000000
H    -6.048000000     7.082000000     0.521000000
O    -7.369000000    -0.666000000    -2.673000000
H    -7.633000000     0.010000000    -2.050000000
H    -6.412000000    -0.636000000    -2.669000000
O    -6.008000000     5.340000000     1.010000000
H    -5.322000000     4.717000000     1.250000000
H    -6.755000000     4.793000000     0.768000000
O    -7.348000000     2.802000000    -0.015000000
H    -6.505000000     2.484000000     0.307000000
H    -7.234000000     2.865000000    -0.963000000
O    -3.677000000     5.505000000    -0.466000000
H    -3.635000000     5.015000000    -1.287000000
H    -3.888000000     4.846000000     0.195000000
O    -3.901000000     8.251000000    -1.062000000
H    -3.720000000     7.432000000    -0.600000000
H    -4.794000000     8.480000000    -0.803000000
O    -4.970000000     4.454000000     3.702000000
H    -4.559000000     4.057000000     2.934000000
H    -4.350000000     5.125000000     3.985000000
O    -7.572000000     5.624000000    -3.851000000
H    -6.706000000     5.249000000    -3.692000000
H    -7.396000000     6.516000000    -4.151000000
O    -5.019000000     0.652000000    -1.722000000
H    -4.969000000     0.805000000    -0.778000000
H    -4.107000000     0.574000000    -2.000000000
O    -7.319000000     3.116000000     4.093000000
H    -7.409000000     3.365000000     5.012000000
H    -6.454000000     3.440000000     3.840000000
O    -9.275000000     3.806000000     1.807000000
H    -8.727000000     3.976000000     2.573000000
H    -8.653000000     3.614000000     1.105000000
O    -2.431000000     1.461000000    -2.229000000
H    -2.125000000     1.610000000    -1.335000000
H    -2.773000000     2.310000000    -2.511000000
O    -3.381000000     4.160000000    -3.036000000
H    -2.466000000     4.349000000    -3.248000000
H    -3.865000000     4.406000000    -3.825000000
O    -8.438000000     0.035000000    -0.124000000
H    -8.542000000     0.980000000    -0.011000000
H    -7.744000000    -0.205000000     0.490000000
O    -7.437000000     6.568000000     3.560000000
H    -6.736000000     6.155000000     3.055000000
H    -7.776000000     7.253000000     2.983000000
O    -6.570000000     2.869000000    -2.493000000
H    -6.007000000     2.233000000    -2.052000000
H    -6.064000000     3.148000000    -3.256000000
O    -6.723000000     0.086000000     1.951000000
H    -6.184000000     0.823000000     1.663000000
H    -6.151000000    -0.417000000     2.531000000
O    -9.165000000     1.018000000     3.880000000
H    -8.735000000     1.863000000     4.019000000
H    -8.513000000     0.491000000     3.419000000
