215
-1450.58648
C    -0.239000000    -0.527000000     5.082000000
H     0.640000000     0.047000000     5.361000000
C    -0.254000000    -1.590000000     4.114000000
C    -1.414000000    -2.280000000     3.829000000
H    -1.456000000    -3.132000000     3.155000000
C     0.926000000    -1.967000000     3.299000000
O     2.195000000    -1.691000000     3.893000000
H     0.877000000    -1.470000000     2.319000000
O     0.891000000    -3.332000000     2.988000000
C     1.291000000    -3.783000000     1.768000000
C     0.362000000    -4.254000000     0.826000000
H    -0.631000000    -4.555000000     1.148000000
C     0.749000000    -4.611000000    -0.480000000
O    -0.293000000    -4.956000000    -1.346000000
C     2.000000000    -4.210000000    -0.990000000
C     2.284000000    -4.402000000    -2.473000000
H     3.322000000    -4.731000000    -2.557000000
C     2.020000000    -3.078000000    -3.290000000
C     3.005000000    -2.155000000    -3.480000000
H     3.982000000    -2.399000000    -3.072000000
H     1.758000000    -5.274000000    -2.867000000
C     2.938000000    -3.740000000    -0.090000000
H     3.928000000    -3.448000000    -0.431000000
C     2.637000000    -3.583000000     1.272000000
C     3.836000000    -3.227000000     2.104000000
H     4.813000000    -3.589000000     1.777000000
H     3.646000000    -3.576000000     3.121000000
C     4.015000000    -1.695000000     2.243000000
C     4.733000000    -0.981000000     1.297000000
H     5.350000000    -1.430000000     0.522000000
C     3.189000000    -1.083000000     3.232000000
C     3.236000000     0.265000000     3.287000000
H     2.534000000     0.770000000     3.945000000
C     3.937000000     1.041000000     2.400000000
O     3.783000000     2.392000000     2.481000000
C     2.864000000     2.947000000     1.562000000
C     1.910000000     3.831000000     2.358000000
C     0.921000000     4.478000000     1.551000000
H     1.026000000     4.441000000     0.470000000
C     1.840000000     4.049000000     3.746000000
H     2.525000000     3.507000000     4.393000000
O     3.455000000     3.537000000     0.380000000
H     2.163000000     2.165000000     1.234000000
C     4.701000000     0.442000000     1.355000000
C     5.463000000     1.305000000     0.397000000
H     6.384000000     0.759000000     0.180000000
H     5.727000000     2.263000000     0.849000000
C     4.551000000     1.620000000    -0.782000000
C     4.595000000     0.779000000    -1.888000000
H     5.154000000    -0.153000000    -1.873000000
C     3.620000000     2.675000000    -0.766000000
C     2.837000000     2.949000000    -1.839000000
H     2.190000000     3.822000000    -1.869000000
C     2.909000000     2.176000000    -2.991000000
O     1.980000000     2.433000000    -4.013000000
C     0.874000000     1.505000000    -4.064000000
C    -0.417000000     2.181000000    -4.359000000
C    -0.885000000     3.258000000    -3.538000000
H    -0.303000000     3.665000000    -2.715000000
C    -1.322000000     1.588000000    -5.267000000
H    -1.101000000     0.680000000    -5.823000000
O     1.083000000     0.501000000    -5.043000000
H     0.758000000     0.978000000    -3.105000000
C     3.733000000     1.074000000    -2.989000000
C     3.850000000     0.130000000    -4.115000000
H     4.814000000    -0.369000000    -3.994000000
H     3.796000000     0.686000000    -5.053000000
C     2.732000000    -0.924000000    -4.074000000
C     1.476000000    -0.762000000    -4.632000000
C     0.492000000    -1.722000000    -4.528000000
H    -0.492000000    -1.412000000    -4.869000000
C     0.748000000    -2.867000000    -3.790000000
O    -0.309000000    -3.683000000    -3.468000000
C    -0.828000000    -3.768000000    -2.124000000
H    -0.465000000    -2.891000000    -1.569000000
C    -2.361000000    -3.707000000    -2.056000000
C    -3.035000000    -4.297000000    -0.989000000
H    -2.452000000    -4.817000000    -0.233000000
C    -3.106000000    -3.123000000    -3.098000000
H    -2.617000000    -2.633000000    -3.936000000
C    -4.445000000    -2.957000000    -2.880000000
O    -5.116000000    -2.187000000    -3.771000000
C    -5.101000000    -3.457000000    -1.792000000
H    -6.161000000    -3.309000000    -1.603000000
C    -4.400000000    -4.130000000    -0.837000000
O    -5.110000000    -4.667000000     0.210000000
C    -4.675000000    -4.773000000     1.510000000
C    -4.574000000    -3.633000000     2.320000000
H    -4.926000000    -2.676000000     1.944000000
C    -4.261000000    -5.988000000     2.093000000
H    -4.491000000    -6.939000000     1.620000000
C    -3.596000000    -6.063000000     3.376000000
H    -3.349000000    -7.035000000     3.794000000
C    -3.383000000    -4.879000000     4.052000000
H    -3.030000000    -4.839000000     5.080000000
C    -3.952000000    -3.728000000     3.553000000
O    -3.783000000    -2.572000000     4.286000000
C    -2.586000000    -1.929000000     4.519000000
C    -2.578000000    -0.936000000     5.499000000
H    -3.510000000    -0.740000000     6.023000000
C    -1.461000000    -0.168000000     5.723000000
O    -1.462000000     0.897000000     6.644000000
C    -0.492000000     1.842000000     6.971000000
C    -0.286000000     2.912000000     6.119000000
H    -0.829000000     2.941000000     5.178000000
C     0.162000000     1.654000000     8.137000000
H    -0.035000000     0.790000000     8.766000000
C     1.015000000     2.708000000     8.539000000
H     1.549000000     2.654000000     9.485000000
C     1.327000000     3.808000000     7.698000000
H     2.104000000     4.545000000     7.883000000
C     0.640000000     3.923000000     6.444000000
O     0.841000000     5.023000000     5.651000000
C     0.858000000     4.839000000     4.298000000
C    -0.044000000     5.502000000     3.503000000
H    -0.693000000     6.242000000     3.965000000
C    -0.001000000     5.323000000     2.162000000
O    -0.982000000     5.996000000     1.458000000
C    -0.992000000     6.137000000     0.079000000
C    -1.787000000     5.328000000    -0.712000000
H    -2.229000000     4.439000000    -0.270000000
C    -0.152000000     7.118000000    -0.481000000
H     0.520000000     7.710000000     0.134000000
C    -0.171000000     7.318000000    -1.876000000
H     0.327000000     8.180000000    -2.311000000
C    -1.056000000     6.531000000    -2.631000000
H    -1.047000000     6.649000000    -3.711000000
C    -1.828000000     5.560000000    -2.032000000
O    -2.635000000     4.809000000    -2.833000000
C    -2.209000000     3.805000000    -3.681000000
C    -3.016000000     3.304000000    -4.676000000
H    -4.047000000     3.643000000    -4.743000000
C    -2.581000000     2.224000000    -5.479000000
O    -3.430000000     1.650000000    -6.349000000
C    -3.796000000     0.288000000    -6.241000000
C    -3.493000000    -0.437000000    -7.326000000
H    -3.208000000     0.035000000    -8.263000000
C    -3.537000000    -1.811000000    -7.240000000
H    -3.221000000    -2.375000000    -8.114000000
C    -4.137000000    -2.371000000    -6.043000000
H    -4.131000000    -3.457000000    -5.983000000
C    -4.459000000    -1.587000000    -4.911000000
C    -4.329000000    -0.209000000    -5.074000000
H    -4.659000000     0.500000000    -4.319000000
C    -1.877000000     1.732000000     1.401000000
H    -2.000000000     2.737000000     1.797000000
C    -0.736000000     1.381000000     0.658000000
H     0.079000000     2.084000000     0.508000000
C    -0.626000000     0.125000000     0.040000000
H     0.142000000    -0.162000000    -0.610000000
C    -1.682000000    -0.791000000     0.179000000
H    -1.567000000    -1.777000000    -0.265000000
C    -2.839000000    -0.395000000     0.880000000
H    -3.636000000    -1.086000000     1.141000000
C    -2.960000000     0.887000000     1.460000000
C    -4.230000000     1.345000000     2.175000000
O    -5.204000000     0.531000000     2.144000000
O    -4.333000000     2.480000000     2.647000000
O    -7.362000000     2.946000000     7.551000000
H    -8.030000000     2.620000000     8.155000000
H    -6.796000000     2.192000000     7.390000000
O    -7.434000000     2.215000000     1.546000000
H    -6.587000000     1.903000000     1.864000000
H    -7.685000000     1.582000000     0.873000000
O   -10.161000000     2.773000000     1.279000000
H   -10.434000000     2.541000000     0.392000000
H    -9.226000000     2.963000000     1.199000000
O    -3.965000000     2.576000000     5.307000000
H    -4.146000000     2.552000000     4.367000000
H    -3.740000000     3.490000000     5.484000000
O    -5.057000000     5.051000000     2.253000000
H    -5.815000000     5.070000000     2.837000000
H    -4.729000000     4.154000000     2.314000000
O    -8.392000000     3.420000000    -1.596000000
H    -8.496000000     3.909000000    -2.412000000
H    -9.218000000     2.949000000    -1.492000000
O    -9.904000000     2.594000000     4.520000000
H   -10.240000000     2.872000000     3.668000000
H    -8.966000000     2.779000000     4.479000000
O    -6.264000000    -1.262000000     0.670000000
H    -5.821000000    -0.608000000     1.211000000
H    -6.921000000    -0.764000000     0.183000000
O    -7.356000000     4.180000000     5.081000000
H    -6.731000000     3.644000000     5.569000000
H    -8.081000000     4.318000000     5.691000000
O    -8.157000000    -3.953000000     0.076000000
H    -8.777000000    -4.011000000     0.803000000
H    -7.529000000    -3.285000000     0.350000000
O    -3.850000000     7.534000000     1.988000000
H    -4.498000000     6.834000000     1.905000000
H    -3.040000000     7.151000000     1.650000000
O    -4.541000000     0.704000000    -1.756000000
H    -4.829000000    -0.200000000    -1.629000000
H    -4.153000000     0.952000000    -0.917000000
O    -7.274000000     5.352000000     0.398000000
H    -7.495000000     4.493000000     0.038000000
H    -6.562000000     5.178000000     1.014000000
O    -8.091000000     0.678000000    -0.495000000
H    -8.896000000     0.185000000    -0.655000000
H    -7.987000000     1.225000000    -1.274000000
O    -5.688000000     1.076000000     6.764000000
H    -5.809000000     0.356000000     6.146000000
H    -5.145000000     1.708000000     6.292000000
O    -5.530000000     4.892000000    -2.733000000
H    -6.205000000     4.433000000    -3.233000000
H    -5.127000000     4.211000000    -2.194000000
O    -6.218000000    -0.788000000     4.303000000
H    -5.983000000    -0.232000000     3.560000000
H    -5.562000000    -1.485000000     4.296000000
O    -3.702000000     1.380000000     8.782000000
H    -3.013000000     1.861000000     8.323000000
H    -4.394000000     1.273000000     8.129000000
O    -8.711000000     0.096000000     5.348000000
H    -9.043000000     0.719000000     4.702000000
H    -7.963000000    -0.319000000     4.919000000
