215
-1458.97320
C    -0.367000000    -0.768000000     4.945000000
H     0.635000000    -0.377000000     5.105000000
C    -0.440000000    -1.882000000     4.105000000
C    -1.717000000    -2.402000000     3.800000000
H    -1.941000000    -3.184000000     3.080000000
C     0.713000000    -2.385000000     3.363000000
O     2.002000000    -2.145000000     3.927000000
H     0.708000000    -1.910000000     2.370000000
O     0.582000000    -3.784000000     3.038000000
C     0.899000000    -4.191000000     1.748000000
C    -0.173000000    -4.529000000     0.959000000
H    -1.188000000    -4.404000000     1.327000000
C     0.089000000    -4.679000000    -0.328000000
O    -1.019000000    -4.851000000    -1.169000000
C     1.339000000    -4.735000000    -0.918000000
C     1.597000000    -4.920000000    -2.427000000
H     2.607000000    -5.310000000    -2.573000000
C     1.440000000    -3.617000000    -3.160000000
C     2.559000000    -2.869000000    -3.377000000
H     3.547000000    -3.305000000    -3.257000000
H     0.861000000    -5.628000000    -2.813000000
C     2.425000000    -4.503000000    -0.082000000
H     3.419000000    -4.325000000    -0.486000000
C     2.175000000    -4.115000000     1.216000000
C     3.438000000    -3.849000000     2.043000000
H     4.375000000    -4.302000000     1.711000000
H     3.289000000    -4.312000000     3.020000000
C     3.606000000    -2.306000000     2.144000000
C     4.470000000    -1.664000000     1.276000000
H     4.936000000    -2.204000000     0.456000000
C     2.996000000    -1.582000000     3.176000000
C     3.140000000    -0.186000000     3.297000000
H     2.694000000     0.395000000     4.100000000
C     4.044000000     0.430000000     2.388000000
O     3.946000000     1.810000000     2.371000000
C     3.127000000     2.474000000     1.359000000
C     2.354000000     3.694000000     1.933000000
C     1.901000000     4.724000000     1.065000000
H     2.184000000     4.652000000     0.018000000
C     1.941000000     3.694000000     3.284000000
H     2.133000000     2.869000000     3.965000000
O     4.054000000     2.916000000     0.268000000
H     2.486000000     1.739000000     0.850000000
C     4.745000000    -0.294000000     1.411000000
C     5.597000000     0.340000000     0.315000000
H     6.344000000    -0.317000000    -0.135000000
H     6.168000000     1.190000000     0.694000000
C     4.663000000     0.741000000    -0.836000000
C     4.543000000    -0.070000000    -1.938000000
H     5.087000000    -1.011000000    -1.946000000
C     4.046000000     2.037000000    -0.812000000
C     3.263000000     2.387000000    -1.895000000
H     2.810000000     3.374000000    -1.953000000
C     3.162000000     1.522000000    -3.001000000
O     2.266000000     1.888000000    -3.944000000
C     0.957000000     1.193000000    -3.843000000
C    -0.187000000     2.178000000    -3.922000000
C     0.169000000     3.531000000    -4.025000000
H     1.206000000     3.791000000    -4.220000000
C    -1.564000000     1.826000000    -3.893000000
H    -1.788000000     0.765000000    -3.975000000
O     0.894000000     0.160000000    -4.836000000
H     0.916000000     0.699000000    -2.861000000
C     3.778000000     0.275000000    -3.045000000
C     3.694000000    -0.690000000    -4.214000000
H     4.621000000    -1.266000000    -4.255000000
H     3.557000000    -0.090000000    -5.117000000
C     2.490000000    -1.594000000    -4.021000000
C     1.184000000    -1.108000000    -4.392000000
C     0.041000000    -1.906000000    -4.150000000
H    -0.950000000    -1.474000000    -4.268000000
C     0.144000000    -3.150000000    -3.542000000
O    -1.092000000    -3.725000000    -3.237000000
C    -1.424000000    -3.653000000    -1.883000000
H    -0.977000000    -2.769000000    -1.405000000
C    -2.917000000    -3.573000000    -1.852000000
C    -3.640000000    -4.091000000    -0.744000000
H    -3.251000000    -4.791000000    -0.009000000
C    -3.571000000    -2.800000000    -2.741000000
H    -3.031000000    -2.355000000    -3.573000000
C    -4.933000000    -2.586000000    -2.643000000
O    -5.664000000    -1.890000000    -3.499000000
C    -5.567000000    -3.018000000    -1.547000000
H    -6.643000000    -2.869000000    -1.594000000
C    -4.974000000    -3.806000000    -0.600000000
O    -5.662000000    -4.571000000     0.380000000
C    -5.206000000    -4.560000000     1.692000000
C    -4.881000000    -3.351000000     2.297000000
H    -4.896000000    -2.397000000     1.777000000
C    -5.403000000    -5.722000000     2.406000000
H    -5.881000000    -6.596000000     1.970000000
C    -5.172000000    -5.726000000     3.776000000
H    -5.257000000    -6.568000000     4.459000000
C    -4.731000000    -4.502000000     4.394000000
H    -4.637000000    -4.327000000     5.463000000
C    -4.565000000    -3.381000000     3.612000000
O    -4.207000000    -2.173000000     4.151000000
C    -2.848000000    -1.724000000     4.342000000
C    -2.704000000    -0.624000000     5.229000000
H    -3.536000000    -0.154000000     5.746000000
C    -1.458000000    -0.087000000     5.531000000
O    -1.363000000     0.927000000     6.433000000
C    -0.314000000     1.868000000     6.568000000
C    -0.291000000     3.030000000     5.704000000
H    -0.947000000     3.281000000     4.874000000
C     0.603000000     1.663000000     7.619000000
H     0.601000000     0.755000000     8.217000000
C     1.643000000     2.514000000     7.748000000
H     2.354000000     2.443000000     8.568000000
C     1.671000000     3.653000000     6.950000000
H     2.517000000     4.315000000     7.117000000
C     0.748000000     3.945000000     5.932000000
O     0.959000000     5.047000000     5.062000000
C     1.232000000     4.803000000     3.755000000
C     0.789000000     5.755000000     2.874000000
H     0.264000000     6.619000000     3.271000000
C     1.074000000     5.743000000     1.513000000
O     0.343000000     6.562000000     0.597000000
C     0.651000000     6.828000000    -0.712000000
C     0.000000000     6.075000000    -1.701000000
H    -0.710000000     5.322000000    -1.368000000
C     1.683000000     7.714000000    -0.994000000
H     2.093000000     8.396000000    -0.253000000
C     2.029000000     7.890000000    -2.311000000
H     2.762000000     8.679000000    -2.460000000
C     1.326000000     7.283000000    -3.272000000
H     1.504000000     7.544000000    -4.312000000
C     0.293000000     6.382000000    -2.985000000
O    -0.337000000     5.791000000    -4.080000000
C    -0.798000000     4.458000000    -4.016000000
C    -2.152000000     4.109000000    -4.044000000
H    -2.987000000     4.792000000    -3.914000000
C    -2.520000000     2.797000000    -4.082000000
O    -3.851000000     2.518000000    -4.105000000
C    -4.328000000     1.288000000    -4.669000000
C    -4.099000000     1.062000000    -6.009000000
H    -3.706000000     1.803000000    -6.700000000
C    -4.407000000    -0.214000000    -6.564000000
H    -4.374000000    -0.372000000    -7.639000000
C    -4.888000000    -1.264000000    -5.769000000
H    -5.062000000    -2.233000000    -6.231000000
C    -5.098000000    -0.984000000    -4.368000000
C    -4.860000000     0.323000000    -3.858000000
H    -5.006000000     0.425000000    -2.785000000
C    -1.381000000     2.333000000    -0.823000000
H    -1.371000000     3.408000000    -0.986000000
C    -0.155000000     1.654000000    -0.612000000
H     0.718000000     2.238000000    -0.892000000
C    -0.114000000     0.340000000    -0.216000000
H     0.860000000    -0.169000000    -0.238000000
C    -1.292000000    -0.286000000     0.093000000
H    -1.249000000    -1.327000000     0.406000000
C    -2.492000000     0.377000000    -0.062000000
H    -3.389000000    -0.196000000     0.155000000
C    -2.599000000     1.680000000    -0.567000000
C    -3.902000000     2.423000000    -0.543000000
O    -4.802000000     1.913000000     0.098000000
O    -4.049000000     3.612000000    -0.785000000
O    -9.791000000     2.746000000    -0.248000000
H    -9.166000000     2.245000000    -0.772000000
H    -9.844000000     2.270000000     0.581000000
O    -2.178000000     7.316000000     3.091000000
H    -1.745000000     8.099000000     2.750000000
H    -2.438000000     6.827000000     2.310000000
O    -4.694000000     6.713000000    -4.244000000
H    -4.750000000     6.397000000    -3.342000000
H    -4.340000000     7.598000000    -4.165000000
O    -8.293000000    -0.079000000    -2.121000000
H    -7.683000000     0.645000000    -1.979000000
H    -8.154000000    -0.332000000    -3.034000000
O    -4.689000000     6.036000000    -1.533000000
H    -4.145000000     5.272000000    -1.342000000
H    -4.918000000     6.388000000    -0.672000000
O    -6.289000000     3.647000000     1.650000000
H    -5.793000000     3.462000000     0.852000000
H    -6.539000000     2.785000000     1.982000000
O    -2.837000000     5.130000000     1.193000000
H    -2.774000000     4.286000000     1.641000000
H    -3.281000000     4.931000000     0.369000000
O    -7.502000000     7.002000000    -0.674000000
H    -6.958000000     6.622000000     0.017000000
H    -7.881000000     6.247000000    -1.123000000
O    -7.901000000    -1.215000000     0.393000000
H    -8.093000000    -1.070000000    -0.534000000
H    -7.240000000    -0.556000000     0.607000000
O    -7.495000000     6.773000000     3.230000000
H    -8.028000000     7.556000000     3.089000000
H    -8.000000000     6.065000000     2.831000000
O    -6.827000000     2.162000000    -1.590000000
H    -6.119000000     2.038000000    -0.957000000
H    -6.564000000     2.932000000    -2.095000000
O    -6.170000000    -0.230000000     4.156000000
H    -5.419000000    -0.816000000     4.250000000
H    -6.263000000     0.180000000     5.016000000
O    -8.225000000     4.720000000    -1.540000000
H    -8.565000000     3.864000000    -1.276000000
H    -7.636000000     4.529000000    -2.269000000
O    -6.242000000     4.570000000    -3.321000000
H    -5.626000000     4.496000000    -4.050000000
H    -5.713000000     4.893000000    -2.592000000
O    -8.297000000    -1.892000000     3.114000000
H    -8.023000000    -1.916000000     2.197000000
H    -7.638000000    -1.347000000     3.546000000
O    -9.524000000     1.447000000     2.170000000
H    -9.606000000     1.469000000     3.124000000
H    -8.589000000     1.313000000     2.014000000
O    -5.476000000     6.235000000     1.135000000
H    -5.605000000     5.327000000     1.411000000
H    -5.228000000     6.696000000     1.936000000
O    -6.479000000     0.747000000     1.658000000
H    -5.677000000     1.114000000     1.288000000
H    -6.239000000     0.499000000     2.551000000
O    -5.401000000     3.217000000     5.103000000
H    -5.974000000     3.209000000     4.337000000
H    -5.512000000     4.092000000     5.476000000
