215
-1449.40172
C    -1.934000000     0.534000000     4.823000000
H    -1.013000000     0.938000000     5.235000000
C    -1.861000000    -0.648000000     4.172000000
C    -3.041000000    -1.134000000     3.508000000
H    -3.004000000    -2.064000000     2.946000000
C    -0.477000000    -1.307000000     3.910000000
O     0.562000000    -0.962000000     4.905000000
H    -0.066000000    -1.042000000     2.925000000
O    -0.635000000    -2.690000000     4.012000000
C     0.025000000    -3.506000000     3.062000000
C    -0.734000000    -3.984000000     2.017000000
H    -1.813000000    -3.858000000     1.987000000
C    -0.209000000    -4.512000000     0.929000000
O    -1.147000000    -4.829000000    -0.048000000
C     1.212000000    -4.589000000     0.789000000
C     1.948000000    -5.096000000    -0.471000000
H     2.946000000    -5.507000000    -0.303000000
C     2.107000000    -4.010000000    -1.567000000
C     3.289000000    -3.326000000    -1.669000000
H     4.120000000    -3.674000000    -1.061000000
H     1.307000000    -5.876000000    -0.888000000
C     1.992000000    -4.109000000     1.820000000
H     3.064000000    -4.285000000     1.800000000
C     1.394000000    -3.663000000     3.012000000
C     2.345000000    -3.105000000     4.080000000
H     3.320000000    -3.576000000     4.222000000
H     1.828000000    -3.233000000     5.033000000
C     2.614000000    -1.596000000     3.924000000
C     3.737000000    -1.157000000     3.167000000
H     4.398000000    -1.963000000     2.858000000
C     1.708000000    -0.591000000     4.266000000
C     1.932000000     0.753000000     3.956000000
H     1.211000000     1.544000000     4.145000000
C     3.023000000     1.131000000     3.183000000
O     3.194000000     2.430000000     2.805000000
C     2.827000000     2.808000000     1.450000000
C     2.067000000     4.122000000     1.492000000
C     2.123000000     5.111000000     0.511000000
H     2.896000000     5.045000000    -0.251000000
C     1.050000000     4.214000000     2.429000000
H     0.857000000     3.436000000     3.163000000
O     3.971000000     2.923000000     0.616000000
H     2.079000000     2.134000000     1.006000000
C     3.933000000     0.135000000     2.726000000
C     5.198000000     0.581000000     1.868000000
H     5.948000000    -0.199000000     2.008000000
H     5.653000000     1.474000000     2.301000000
C     4.857000000     0.638000000     0.398000000
C     4.963000000    -0.519000000    -0.453000000
H     5.389000000    -1.432000000    -0.046000000
C     4.267000000     1.830000000    -0.147000000
C     3.942000000     1.957000000    -1.478000000
H     3.474000000     2.837000000    -1.910000000
C     4.195000000     0.880000000    -2.360000000
O     3.656000000     0.822000000    -3.660000000
C     2.324000000     0.301000000    -3.786000000
C     1.257000000     1.213000000    -4.416000000
C     1.436000000     2.575000000    -4.394000000
H     2.290000000     3.039000000    -3.908000000
C     0.084000000     0.619000000    -4.848000000
H    -0.067000000    -0.457000000    -4.826000000
O     2.356000000    -0.981000000    -4.446000000
H     1.978000000     0.084000000    -2.765000000
C     4.696000000    -0.357000000    -1.838000000
C     4.713000000    -1.568000000    -2.746000000
H     5.578000000    -2.097000000    -2.340000000
H     4.944000000    -1.317000000    -3.783000000
C     3.493000000    -2.429000000    -2.762000000
C     2.374000000    -2.057000000    -3.531000000
C     1.140000000    -2.721000000    -3.343000000
H     0.268000000    -2.554000000    -3.970000000
C     1.030000000    -3.709000000    -2.406000000
O    -0.304000000    -4.188000000    -2.223000000
C    -1.209000000    -3.837000000    -1.099000000
H    -0.908000000    -2.846000000    -0.728000000
C    -2.650000000    -3.826000000    -1.588000000
C    -3.689000000    -4.121000000    -0.749000000
H    -3.533000000    -4.422000000     0.283000000
C    -2.868000000    -3.503000000    -2.962000000
H    -2.006000000    -3.406000000    -3.616000000
C    -4.173000000    -3.478000000    -3.456000000
O    -4.502000000    -3.364000000    -4.789000000
C    -5.223000000    -3.864000000    -2.609000000
H    -6.255000000    -3.840000000    -2.948000000
C    -4.983000000    -4.001000000    -1.207000000
O    -5.968000000    -4.270000000    -0.282000000
C    -5.930000000    -3.916000000     1.032000000
C    -5.671000000    -2.551000000     1.348000000
H    -5.563000000    -1.798000000     0.571000000
C    -6.122000000    -4.780000000     2.129000000
H    -6.364000000    -5.779000000     1.777000000
C    -5.965000000    -4.371000000     3.440000000
H    -6.040000000    -5.130000000     4.215000000
C    -5.712000000    -3.057000000     3.729000000
H    -5.847000000    -2.631000000     4.720000000
C    -5.589000000    -2.150000000     2.675000000
O    -5.369000000    -0.910000000     2.968000000
C    -4.299000000    -0.453000000     3.697000000
C    -4.316000000     0.680000000     4.481000000
H    -5.295000000     1.014000000     4.815000000
C    -3.157000000     1.167000000     5.054000000
O    -3.177000000     2.254000000     5.864000000
C    -2.233000000     3.257000000     5.759000000
C    -2.069000000     3.836000000     4.488000000
H    -2.587000000     3.476000000     3.603000000
C    -1.409000000     3.597000000     6.858000000
H    -1.533000000     3.028000000     7.776000000
C    -0.564000000     4.711000000     6.655000000
H    -0.015000000     4.952000000     7.562000000
C    -0.415000000     5.329000000     5.455000000
H     0.266000000     6.169000000     5.342000000
C    -1.153000000     4.900000000     4.356000000
O    -0.960000000     5.350000000     3.065000000
C     0.160000000     5.313000000     2.333000000
C     0.261000000     6.320000000     1.360000000
H    -0.516000000     7.057000000     1.171000000
C     1.268000000     6.187000000     0.389000000
O     1.234000000     7.036000000    -0.676000000
C     1.712000000     6.711000000    -1.886000000
C     0.864000000     5.902000000    -2.668000000
H    -0.195000000     5.856000000    -2.425000000
C     3.056000000     6.813000000    -2.187000000
H     3.784000000     7.271000000    -1.522000000
C     3.521000000     6.399000000    -3.391000000
H     4.529000000     6.672000000    -3.694000000
C     2.680000000     5.692000000    -4.215000000
H     3.089000000     5.181000000    -5.082000000
C     1.348000000     5.484000000    -3.914000000
O     0.569000000     4.809000000    -4.824000000
C     0.396000000     3.393000000    -4.757000000
C    -0.835000000     2.822000000    -5.120000000
H    -1.716000000     3.403000000    -5.380000000
C    -1.051000000     1.413000000    -5.165000000
O    -2.334000000     0.953000000    -5.494000000
C    -2.539000000    -0.345000000    -5.931000000
C    -2.013000000    -0.866000000    -7.111000000
H    -1.270000000    -0.258000000    -7.622000000
C    -2.197000000    -2.196000000    -7.472000000
H    -1.793000000    -2.684000000    -8.355000000
C    -3.110000000    -2.962000000    -6.759000000
H    -3.185000000    -4.015000000    -7.018000000
C    -3.659000000    -2.503000000    -5.575000000
C    -3.406000000    -1.169000000    -5.192000000
H    -3.839000000    -0.700000000    -4.311000000
C    -0.678000000     3.114000000    -0.591000000
H    -0.498000000     4.058000000    -1.098000000
C     0.133000000     1.997000000    -0.698000000
H     1.051000000     2.025000000    -1.280000000
C    -0.185000000     0.954000000     0.100000000
H     0.363000000     0.062000000     0.187000000
C    -1.270000000     1.007000000     0.995000000
H    -1.411000000     0.143000000     1.640000000
C    -2.077000000     2.109000000     1.051000000
H    -2.876000000     2.117000000     1.788000000
C    -1.779000000     3.162000000     0.204000000
C    -2.786000000     4.292000000     0.188000000
O    -3.720000000     4.256000000     0.987000000
O    -2.857000000     5.030000000    -0.765000000
O    -8.725000000     7.075000000     1.289000000
H    -8.116000000     7.199000000     2.017000000
H    -8.613000000     6.158000000     1.037000000
O    -3.396000000     3.466000000    -3.295000000
H    -2.714000000     4.092000000    -3.055000000
H    -4.049000000     3.989000000    -3.761000000
O    -1.258000000     8.704000000    -1.699000000
H    -0.362000000     8.884000000    -1.414000000
H    -1.696000000     9.554000000    -1.664000000
O    -3.391000000     1.213000000    -2.039000000
H    -3.419000000     1.868000000    -2.737000000
H    -2.940000000     1.652000000    -1.318000000
O    -5.386000000     3.695000000    -1.395000000
H    -4.834000000     3.377000000    -2.109000000
H    -4.789000000     4.186000000    -0.831000000
O    -6.074000000     8.392000000     2.219000000
H    -5.310000000     7.849000000     2.025000000
H    -5.785000000     9.286000000     2.040000000
O    -5.732000000     4.418000000    -4.672000000
H    -6.088000000     3.641000000    -5.103000000
H    -6.504000000     4.906000000    -4.385000000
O    -9.011000000     4.176000000     1.030000000
H    -8.637000000     3.934000000     0.183000000
H    -9.577000000     3.439000000     1.261000000
O    -3.278000000     7.721000000     3.226000000
H    -3.667000000     6.867000000     3.411000000
H    -2.620000000     7.545000000     2.553000000
O    -5.563000000     7.200000000    -3.100000000
H    -5.426000000     7.123000000    -2.155000000
H    -6.270000000     6.583000000    -3.290000000
O    -8.267000000     3.269000000    -1.367000000
H    -7.310000000     3.252000000    -1.355000000
H    -8.486000000     3.994000000    -1.952000000
O    -4.069000000     7.355000000    -0.608000000
H    -3.389000000     7.796000000    -1.117000000
H    -3.735000000     6.468000000    -0.480000000
O    -0.958000000     8.185000000    -4.264000000
H    -1.302000000     7.451000000    -3.755000000
H    -0.595000000     8.782000000    -3.610000000
O    -1.660000000    -0.822000000    -2.382000000
H    -2.089000000    -1.678000000    -2.380000000
H    -2.377000000    -0.194000000    -2.466000000
O    -5.960000000     0.340000000    -1.251000000
H    -5.079000000     0.451000000    -1.610000000
H    -5.916000000     0.736000000    -0.381000000
O    -5.063000000     5.461000000     3.346000000
H    -4.554000000     5.016000000     2.668000000
H    -5.834000000     4.908000000     3.469000000
O    -5.975000000     3.110000000     2.122000000
H    -5.042000000     3.308000000     2.037000000
H    -6.307000000     3.133000000     1.225000000
O     1.803000000     7.348000000     3.951000000
H     1.694000000     6.404000000     3.833000000
H     2.081000000     7.666000000     3.092000000
O    -2.749000000     6.307000000    -3.282000000
H    -3.610000000     6.721000000    -3.227000000
H    -2.649000000     5.850000000    -2.447000000
