215
-1448.86657
C    -5.131000000    -0.347000000    -1.790000000
H    -4.713000000     0.028000000    -2.721000000
C    -4.929000000     0.355000000    -0.606000000
C    -5.432000000    -0.163000000     0.609000000
H    -5.298000000     0.366000000     1.549000000
C    -4.000000000     1.597000000    -0.587000000
O    -4.047000000     2.295000000    -1.765000000
H    -3.011000000     1.123000000    -0.496000000
O    -4.450000000     2.461000000     0.510000000
C    -3.453000000     3.134000000     1.161000000
C    -3.220000000     2.778000000     2.477000000
H    -3.867000000     2.110000000     3.040000000
C    -1.997000000     3.136000000     3.093000000
O    -1.614000000     2.424000000     4.192000000
C    -1.221000000     4.157000000     2.466000000
C     0.054000000     4.700000000     3.001000000
H     0.222000000     5.634000000     2.459000000
C     1.298000000     3.879000000     2.660000000
C     2.140000000     4.238000000     1.588000000
H     1.937000000     5.207000000     1.138000000
H    -0.051000000     4.994000000     4.047000000
C    -1.647000000     4.740000000     1.288000000
H    -1.026000000     5.510000000     0.836000000
C    -2.728000000     4.119000000     0.514000000
C    -3.002000000     4.689000000    -0.863000000
H    -2.601000000     5.703000000    -0.920000000
H    -4.067000000     4.811000000    -1.071000000
C    -2.294000000     3.826000000    -1.931000000
C    -1.010000000     4.225000000    -2.451000000
H    -0.561000000     5.087000000    -1.964000000
C    -2.880000000     2.672000000    -2.410000000
C    -2.257000000     1.900000000    -3.388000000
H    -2.617000000     0.937000000    -3.741000000
C    -0.965000000     2.224000000    -3.873000000
O    -0.421000000     1.285000000    -4.706000000
C     0.630000000     0.589000000    -4.042000000
C     0.636000000    -0.959000000    -4.389000000
C     1.823000000    -1.710000000    -4.541000000
H     2.713000000    -1.140000000    -4.289000000
C    -0.587000000    -1.537000000    -4.667000000
H    -1.487000000    -0.936000000    -4.560000000
O     1.939000000     1.159000000    -4.259000000
H     0.415000000     0.619000000    -2.963000000
C    -0.365000000     3.406000000    -3.317000000
C     1.093000000     3.837000000    -3.794000000
H     1.054000000     4.928000000    -3.765000000
H     1.288000000     3.634000000    -4.849000000
C     2.175000000     3.185000000    -3.041000000
C     2.907000000     3.864000000    -2.037000000
H     2.543000000     4.813000000    -1.650000000
C     2.619000000     1.925000000    -3.340000000
C     3.552000000     1.213000000    -2.653000000
H     3.810000000     0.178000000    -2.865000000
C     4.073000000     1.886000000    -1.491000000
O     4.809000000     1.133000000    -0.638000000
C     4.209000000     0.559000000     0.530000000
C     4.542000000    -0.905000000     0.751000000
C     5.248000000    -1.640000000    -0.204000000
H     5.708000000    -1.118000000    -1.039000000
C     3.961000000    -1.578000000     1.812000000
H     3.439000000    -1.045000000     2.603000000
O     4.446000000     1.340000000     1.673000000
H     3.116000000     0.540000000     0.404000000
C     3.793000000     3.220000000    -1.157000000
C     4.202000000     3.929000000     0.097000000
H     4.174000000     5.009000000    -0.062000000
H     5.234000000     3.632000000     0.298000000
C     3.295000000     3.466000000     1.276000000
C     3.533000000     2.266000000     2.024000000
C     2.653000000     1.823000000     3.018000000
H     2.791000000     0.845000000     3.471000000
C     1.534000000     2.626000000     3.306000000
O     0.732000000     2.137000000     4.316000000
C    -0.596000000     1.485000000     3.991000000
H    -0.411000000     1.254000000     2.932000000
C    -0.755000000     0.166000000     4.679000000
C    -1.915000000    -0.585000000     4.538000000
H    -2.701000000    -0.221000000     3.880000000
C     0.242000000    -0.349000000     5.549000000
H     1.185000000     0.180000000     5.662000000
C     0.155000000    -1.681000000     6.000000000
O     1.242000000    -2.088000000     6.797000000
C    -1.007000000    -2.394000000     5.896000000
H    -1.059000000    -3.446000000     6.165000000
C    -2.043000000    -1.881000000     5.129000000
O    -3.169000000    -2.653000000     4.921000000
C    -4.465000000    -2.233000000     4.624000000
C    -5.001000000    -2.391000000     3.326000000
H    -4.428000000    -2.850000000     2.525000000
C    -5.151000000    -1.456000000     5.544000000
H    -4.644000000    -1.242000000     6.482000000
C    -6.428000000    -0.963000000     5.222000000
H    -7.022000000    -0.370000000     5.913000000
C    -6.960000000    -1.124000000     3.980000000
H    -7.935000000    -0.706000000     3.741000000
C    -6.216000000    -1.775000000     2.992000000
O    -6.722000000    -1.807000000     1.700000000
C    -6.176000000    -1.375000000     0.560000000
C    -6.272000000    -2.099000000    -0.599000000
H    -6.725000000    -3.087000000    -0.574000000
C    -5.852000000    -1.518000000    -1.827000000
O    -5.763000000    -2.387000000    -2.959000000
C    -4.942000000    -2.216000000    -4.043000000
C    -3.764000000    -2.913000000    -4.130000000
H    -3.486000000    -3.621000000    -3.354000000
C    -5.426000000    -1.384000000    -5.012000000
H    -6.367000000    -0.856000000    -4.875000000
C    -4.726000000    -1.350000000    -6.225000000
H    -5.160000000    -0.846000000    -7.086000000
C    -3.532000000    -2.055000000    -6.410000000
H    -3.050000000    -2.282000000    -7.358000000
C    -3.031000000    -2.794000000    -5.334000000
O    -1.878000000    -3.475000000    -5.498000000
C    -0.690000000    -2.913000000    -5.061000000
C     0.448000000    -3.681000000    -5.103000000
H     0.443000000    -4.732000000    -5.378000000
C     1.712000000    -3.056000000    -4.767000000
O     2.859000000    -3.843000000    -4.924000000
C     4.122000000    -3.607000000    -4.352000000
C     4.337000000    -3.588000000    -2.968000000
H     3.494000000    -3.813000000    -2.320000000
C     5.159000000    -3.624000000    -5.217000000
H     5.022000000    -3.635000000    -6.295000000
C     6.499000000    -3.469000000    -4.819000000
H     7.293000000    -3.436000000    -5.560000000
C     6.731000000    -3.552000000    -3.449000000
H     7.767000000    -3.625000000    -3.127000000
C     5.645000000    -3.524000000    -2.556000000
O     5.921000000    -3.663000000    -1.231000000
C     5.236000000    -2.991000000    -0.228000000
C     4.754000000    -3.697000000     0.882000000
H     4.931000000    -4.755000000     1.061000000
C     4.235000000    -2.958000000     1.944000000
O     3.865000000    -3.657000000     3.117000000
C     3.790000000    -3.059000000     4.326000000
C     4.889000000    -2.305000000     4.810000000
H     5.811000000    -2.336000000     4.234000000
C     4.776000000    -1.551000000     5.971000000
H     5.647000000    -0.954000000     6.231000000
C     3.544000000    -1.544000000     6.648000000
H     3.456000000    -1.046000000     7.610000000
C     2.466000000    -2.314000000     6.188000000
C     2.613000000    -3.086000000     5.008000000
H     1.750000000    -3.596000000     4.588000000
C     0.785000000    -2.320000000    -1.259000000
H     1.585000000    -2.816000000    -1.802000000
C     0.918000000    -0.919000000    -0.948000000
H     1.859000000    -0.502000000    -1.296000000
C    -0.056000000    -0.360000000    -0.117000000
H     0.092000000     0.652000000     0.262000000
C    -1.195000000    -1.059000000     0.270000000
H    -1.945000000    -0.556000000     0.874000000
C    -1.401000000    -2.359000000    -0.120000000
H    -2.377000000    -2.788000000     0.095000000
C    -0.404000000    -2.997000000    -0.889000000
C    -0.667000000    -4.465000000    -1.218000000
O    -1.617000000    -5.059000000    -0.782000000
O     0.209000000    -5.136000000    -1.792000000
O    -2.832000000    -6.248000000    -2.945000000
H    -2.211000000    -6.707000000    -3.510000000
H    -2.283000000    -5.730000000    -2.356000000
O    -3.470000000    -9.495000000    -3.554000000
H    -3.222000000    -8.611000000    -3.823000000
H    -4.394000000    -9.569000000    -3.792000000
O    -1.375000000    -7.761000000    -5.143000000
H    -0.987000000    -8.520000000    -5.578000000
H    -1.561000000    -7.147000000    -5.854000000
O    -5.642000000    -6.778000000    -0.121000000
H    -4.954000000    -6.130000000     0.027000000
H    -5.812000000    -6.737000000    -1.062000000
O    -2.959000000    -8.837000000    -0.687000000
H    -3.237000000    -9.010000000    -1.586000000
H    -2.201000000    -8.260000000    -0.777000000
O     3.058000000    -8.527000000    -4.636000000
H     3.177000000    -8.025000000    -5.442000000
H     2.325000000    -8.099000000    -4.193000000
O    -3.751000000    -4.778000000     0.750000000
H    -3.354000000    -4.886000000     1.614000000
H    -3.009000000    -4.767000000     0.145000000
O     1.223000000    -6.809000000    -3.671000000
H     0.331000000    -7.136000000    -3.791000000
H     1.115000000    -5.990000000    -3.187000000
O     3.257000000    -6.344000000    -6.129000000
H     3.082000000    -5.643000000    -5.500000000
H     4.190000000    -6.261000000    -6.325000000
O     3.858000000    -8.456000000    -0.765000000
H     4.379000000    -8.524000000     0.036000000
H     3.849000000    -7.520000000    -0.965000000
O    -0.008000000    -8.310000000     3.804000000
H     0.408000000    -7.543000000     3.411000000
H    -0.902000000    -8.027000000     3.995000000
O    -0.019000000    -6.102000000     2.062000000
H    -0.835000000    -5.653000000     2.282000000
H    -0.209000000    -6.554000000     1.239000000
O    -1.956000000    -6.056000000    -7.113000000
H    -2.325000000    -5.310000000    -6.640000000
H    -2.545000000    -6.182000000    -7.857000000
O    -5.601000000    -6.491000000    -2.754000000
H    -5.897000000    -6.272000000    -3.638000000
H    -4.660000000    -6.317000000    -2.767000000
O    -4.583000000    -8.090000000     1.982000000
H    -3.712000000    -8.050000000     1.586000000
H    -5.135000000    -7.566000000     1.402000000
O    -2.521000000    -5.047000000     3.324000000
H    -3.196000000    -5.523000000     3.807000000
H    -2.380000000    -4.248000000     3.833000000
O    -0.448000000    -7.603000000    -0.210000000
H     0.483000000    -7.473000000    -0.391000000
H    -0.873000000    -6.829000000    -0.581000000
O    -0.197000000    -3.941000000    -8.272000000
H    -0.287000000    -4.189000000    -7.352000000
H     0.742000000    -3.998000000    -8.446000000
O     2.174000000    -6.193000000    -0.275000000
H     1.951000000    -5.752000000     0.545000000
H     1.601000000    -5.789000000    -0.927000000
