215
-1413.87011
C    -1.765000000     2.384000000     4.362000000
H    -0.842000000     2.931000000     4.534000000
C    -1.815000000     0.989000000     4.334000000
C    -3.053000000     0.374000000     4.393000000
H    -3.191000000    -0.700000000     4.486000000
C    -0.577000000     0.145000000     4.218000000
O     0.587000000     0.797000000     4.819000000
H    -0.336000000     0.060000000     3.149000000
O    -0.761000000    -1.234000000     4.773000000
C    -0.363000000    -2.250000000     4.010000000
C    -1.317000000    -3.003000000     3.234000000
H    -2.365000000    -2.728000000     3.140000000
C    -0.927000000    -3.943000000     2.352000000
O    -1.808000000    -4.487000000     1.456000000
C     0.435000000    -4.297000000     2.282000000
C     0.949000000    -5.298000000     1.287000000
H     1.892000000    -5.663000000     1.701000000
C     1.289000000    -4.716000000    -0.049000000
C     2.528000000    -4.155000000    -0.263000000
H     3.199000000    -4.080000000     0.589000000
H     0.254000000    -6.139000000     1.244000000
C     1.342000000    -3.663000000     3.182000000
H     2.387000000    -3.946000000     3.085000000
C     0.982000000    -2.621000000     3.979000000
C     2.013000000    -1.788000000     4.719000000
H     2.854000000    -2.444000000     4.951000000
H     1.611000000    -1.600000000     5.717000000
C     2.485000000    -0.510000000     4.084000000
C     3.643000000    -0.524000000     3.351000000
H     4.200000000    -1.447000000     3.217000000
C     1.766000000     0.650000000     4.193000000
C     2.203000000     1.810000000     3.580000000
H     1.621000000     2.724000000     3.675000000
C     3.290000000     1.743000000     2.772000000
O     3.521000000     2.834000000     1.936000000
C     3.186000000     2.635000000     0.493000000
C     2.504000000     3.777000000    -0.196000000
C     2.891000000     4.257000000    -1.497000000
H     3.838000000     3.869000000    -1.861000000
C     1.349000000     4.258000000     0.305000000
H     1.054000000     3.860000000     1.272000000
O     4.407000000     2.347000000    -0.124000000
H     2.452000000     1.816000000     0.547000000
C     4.090000000     0.550000000     2.652000000
C     5.412000000     0.493000000     1.896000000
H     6.010000000    -0.319000000     2.316000000
H     6.034000000     1.385000000     1.999000000
C     5.135000000     0.110000000     0.372000000
C     5.041000000    -1.235000000    -0.022000000
H     5.288000000    -1.992000000     0.719000000
C     4.747000000     1.099000000    -0.527000000
C     4.306000000     0.777000000    -1.780000000
H     4.060000000     1.555000000    -2.498000000
C     4.145000000    -0.547000000    -2.166000000
O     3.625000000    -0.898000000    -3.422000000
C     2.278000000    -1.398000000    -3.360000000
C     1.338000000    -0.632000000    -4.228000000
C     1.678000000     0.559000000    -4.881000000
H     2.737000000     0.761000000    -5.026000000
C    -0.078000000    -0.818000000    -4.138000000
H    -0.515000000    -1.576000000    -3.493000000
O     2.102000000    -2.759000000    -3.611000000
H     1.917000000    -1.268000000    -2.329000000
C     4.556000000    -1.582000000    -1.287000000
C     4.386000000    -3.056000000    -1.657000000
H     5.063000000    -3.659000000    -1.049000000
H     4.843000000    -3.260000000    -2.628000000
C     2.933000000    -3.595000000    -1.507000000
C     1.989000000    -3.586000000    -2.481000000
C     0.679000000    -4.102000000    -2.232000000
H    -0.109000000    -3.955000000    -2.967000000
C     0.290000000    -4.654000000    -1.038000000
O    -1.024000000    -5.001000000    -0.734000000
C    -1.782000000    -4.039000000     0.111000000
H    -1.241000000    -3.082000000     0.164000000
C    -3.152000000    -3.757000000    -0.373000000
C    -4.113000000    -3.176000000     0.470000000
H    -3.771000000    -2.846000000     1.448000000
C    -3.507000000    -3.979000000    -1.698000000
H    -2.840000000    -4.402000000    -2.445000000
C    -4.801000000    -3.489000000    -2.147000000
O    -5.137000000    -3.561000000    -3.435000000
C    -5.712000000    -3.026000000    -1.256000000
H    -6.704000000    -2.672000000    -1.525000000
C    -5.365000000    -2.824000000     0.039000000
O    -6.332000000    -2.205000000     0.907000000
C    -6.195000000    -1.966000000     2.287000000
C    -6.005000000    -0.695000000     2.737000000
H    -6.037000000     0.126000000     2.025000000
C    -6.310000000    -3.046000000     3.137000000
H    -6.473000000    -4.013000000     2.669000000
C    -6.018000000    -2.973000000     4.494000000
H    -5.895000000    -3.812000000     5.174000000
C    -5.759000000    -1.696000000     4.969000000
H    -5.425000000    -1.517000000     5.988000000
C    -5.828000000    -0.543000000     4.119000000
O    -5.391000000     0.676000000     4.569000000
C    -4.152000000     1.219000000     4.594000000
C    -4.088000000     2.599000000     4.492000000
H    -4.947000000     3.261000000     4.410000000
C    -2.865000000     3.132000000     4.381000000
O    -2.701000000     4.501000000     4.451000000
C    -1.672000000     5.175000000     3.837000000
C    -1.618000000     5.171000000     2.408000000
H    -2.480000000     4.744000000     1.900000000
C    -0.640000000     5.890000000     4.545000000
H    -0.769000000     6.008000000     5.617000000
C     0.447000000     6.523000000     3.934000000
H     1.265000000     6.970000000     4.493000000
C     0.524000000     6.422000000     2.533000000
H     1.223000000     7.049000000     1.985000000
C    -0.546000000     5.861000000     1.841000000
O    -0.471000000     5.820000000     0.449000000
C     0.644000000     5.315000000    -0.194000000
C     1.010000000     5.867000000    -1.401000000
H     0.513000000     6.723000000    -1.850000000
C     2.172000000     5.330000000    -2.006000000
O     2.573000000     5.849000000    -3.173000000
C     2.761000000     5.137000000    -4.295000000
C     1.881000000     4.022000000    -4.617000000
H     1.016000000     3.762000000    -4.013000000
C     3.638000000     5.567000000    -5.196000000
H     4.173000000     6.500000000    -5.037000000
C     3.721000000     5.078000000    -6.491000000
H     4.218000000     5.635000000    -7.280000000
C     2.885000000     3.969000000    -6.802000000
H     2.813000000     3.629000000    -7.832000000
C     2.019000000     3.443000000    -5.875000000
O     1.200000000     2.420000000    -6.276000000
C     0.728000000     1.401000000    -5.513000000
C    -0.629000000     1.109000000    -5.545000000
H    -1.315000000     1.758000000    -6.085000000
C    -0.934000000    -0.025000000    -4.834000000
O    -2.257000000    -0.308000000    -4.865000000
C    -2.658000000    -1.575000000    -4.929000000
C    -1.981000000    -2.534000000    -5.724000000
H    -1.014000000    -2.324000000    -6.174000000
C    -2.535000000    -3.816000000    -5.862000000
H    -2.009000000    -4.617000000    -6.377000000
C    -3.703000000    -4.139000000    -5.197000000
H    -4.160000000    -5.125000000    -5.191000000
C    -4.206000000    -3.220000000    -4.323000000
C    -3.733000000    -1.893000000    -4.207000000
H    -4.152000000    -1.248000000    -3.438000000
C    -0.630000000     1.745000000    -1.565000000
H    -0.598000000     2.407000000    -2.427000000
C     0.463000000     1.002000000    -1.159000000
H     1.424000000     1.073000000    -1.662000000
C     0.288000000     0.068000000    -0.062000000
H     1.252000000    -0.444000000     0.369000000
C    -0.956000000    -0.171000000     0.435000000
H    -1.128000000    -0.926000000     1.198000000
C    -2.067000000     0.580000000     0.005000000
H    -3.081000000     0.503000000     0.387000000
C    -1.935000000     1.572000000    -0.985000000
C    -3.124000000     2.469000000    -1.225000000
O    -4.144000000     2.461000000    -0.632000000
O    -3.082000000     3.367000000    -2.050000000
O    -6.047000000     8.342000000    -2.915000000
H    -6.870000000     8.815000000    -2.792000000
H    -6.167000000     7.522000000    -2.436000000
O    -3.278000000     2.386000000    -4.463000000
H    -3.237000000     2.919000000    -3.669000000
H    -2.790000000     1.592000000    -4.243000000
O    -8.838000000     3.402000000     0.802000000
H    -9.728000000     3.522000000     0.473000000
H    -8.691000000     2.458000000     0.759000000
O    -8.510000000     2.936000000    -2.894000000
H    -8.951000000     3.647000000    -2.430000000
H    -7.625000000     2.924000000    -2.530000000
O    -3.970000000     5.602000000    -0.837000000
H    -4.201000000     5.029000000    -1.569000000
H    -3.749000000     5.002000000    -0.124000000
O    -8.840000000     0.827000000     0.716000000
H    -8.122000000     0.730000000     0.090000000
H    -9.006000000    -0.062000000     1.030000000
O    -5.637000000     0.066000000    -5.594000000
H    -5.141000000     0.728000000    -5.114000000
H    -4.986000000    -0.369000000    -6.145000000
O    -6.086000000     6.898000000     0.174000000
H    -5.399000000     6.250000000     0.020000000
H    -6.898000000     6.446000000    -0.054000000
O    -1.885000000     5.906000000    -4.107000000
H    -2.008000000     5.143000000    -3.543000000
H    -2.016000000     6.656000000    -3.528000000
O    -5.146000000     3.968000000     1.351000000
H    -5.688000000     3.427000000     1.925000000
H    -4.688000000     3.340000000     0.792000000
O    -8.265000000     5.463000000    -0.710000000
H    -8.984000000     6.079000000    -0.567000000
H    -8.411000000     4.771000000    -0.065000000
O    -6.314000000     0.897000000    -0.615000000
H    -5.466000000     1.340000000    -0.658000000
H    -6.402000000     0.466000000    -1.465000000
O    -2.151000000     7.555000000    -2.123000000
H    -2.570000000     6.955000000    -1.506000000
H    -2.080000000     8.381000000    -1.643000000
O    -7.291000000     2.613000000     2.850000000
H    -7.975000000     2.661000000     2.181000000
H    -7.683000000     2.099000000     3.556000000
O    -3.761000000     3.633000000    -6.875000000
H    -3.899000000     3.205000000    -6.030000000
H    -3.648000000     4.559000000    -6.658000000
O    -6.144000000     3.878000000    -1.774000000
H    -6.550000000     4.137000000    -0.947000000
H    -5.400000000     3.335000000    -1.515000000
O    -6.706000000    -0.557000000    -2.985000000
H    -7.062000000    -1.445000000    -2.936000000
H    -6.843000000    -0.294000000    -3.895000000
O    -3.638000000     6.289000000    -6.496000000
H    -3.521000000     7.172000000    -6.847000000
H    -3.052000000     6.253000000    -5.740000000
O    -6.526000000     4.961000000    -4.999000000
H    -6.675000000     4.064000000    -5.298000000
H    -6.213000000     4.864000000    -4.099000000
