215
-1458.70704
C    -1.295000000     2.818000000     4.299000000
H    -0.383000000     3.390000000     4.152000000
C    -1.274000000     1.411000000     4.432000000
C    -2.407000000     0.715000000     4.648000000
H    -2.442000000    -0.365000000     4.766000000
C     0.081000000     0.674000000     4.214000000
O     1.247000000     1.391000000     4.695000000
H     0.322000000     0.547000000     3.148000000
O     0.066000000    -0.682000000     4.787000000
C     0.496000000    -1.761000000     4.095000000
C    -0.445000000    -2.659000000     3.657000000
H    -1.493000000    -2.496000000     3.897000000
C    -0.081000000    -3.689000000     2.826000000
O    -1.078000000    -4.426000000     2.214000000
C     1.279000000    -3.922000000     2.601000000
C     1.752000000    -4.948000000     1.647000000
H     2.789000000    -5.181000000     1.898000000
C     1.730000000    -4.544000000     0.233000000
C     2.936000000    -4.117000000    -0.374000000
H     3.895000000    -4.113000000     0.139000000
H     1.173000000    -5.870000000     1.735000000
C     2.247000000    -3.099000000     3.183000000
H     3.288000000    -3.318000000     2.961000000
C     1.902000000    -2.003000000     3.959000000
C     2.901000000    -0.999000000     4.565000000
H     3.841000000    -1.554000000     4.529000000
H     2.698000000    -0.709000000     5.598000000
C     3.176000000     0.244000000     3.726000000
C     4.117000000     0.119000000     2.740000000
H     4.791000000    -0.732000000     2.685000000
C     2.340000000     1.381000000     3.819000000
C     2.487000000     2.447000000     3.016000000
H     1.773000000     3.254000000     3.155000000
C     3.525000000     2.423000000     2.044000000
O     3.571000000     3.446000000     1.103000000
C     2.967000000     3.152000000    -0.216000000
C     2.215000000     4.340000000    -0.626000000
C     1.879000000     4.541000000    -2.003000000
H     2.270000000     3.831000000    -2.727000000
C     1.645000000     5.238000000     0.335000000
H     1.737000000     4.929000000     1.373000000
O     3.955000000     2.694000000    -1.220000000
H     2.128000000     2.467000000    -0.025000000
C     4.257000000     1.241000000     1.842000000
C     5.291000000     1.183000000     0.743000000
H     6.200000000     0.632000000     0.995000000
H     5.618000000     2.214000000     0.591000000
C     4.720000000     0.513000000    -0.509000000
C     4.731000000    -0.845000000    -0.608000000
H     5.097000000    -1.484000000     0.191000000
C     4.154000000     1.349000000    -1.436000000
C     3.625000000     0.772000000    -2.552000000
H     3.082000000     1.394000000    -3.258000000
C     3.603000000    -0.590000000    -2.674000000
O     2.983000000    -1.015000000    -3.764000000
C     1.690000000    -1.584000000    -3.568000000
C     0.661000000    -1.081000000    -4.501000000
C     0.723000000     0.265000000    -4.997000000
H     1.678000000     0.725000000    -4.753000000
C    -0.503000000    -1.857000000    -4.755000000
H    -0.539000000    -2.865000000    -4.349000000
O     1.831000000    -3.021000000    -3.627000000
H     1.240000000    -1.334000000    -2.595000000
C     4.241000000    -1.444000000    -1.756000000
C     4.246000000    -2.909000000    -2.019000000
H     5.070000000    -3.433000000    -1.532000000
H     4.414000000    -2.989000000    -3.095000000
C     2.970000000    -3.608000000    -1.639000000
C     1.775000000    -3.583000000    -2.374000000
C     0.539000000    -4.098000000    -1.832000000
H    -0.376000000    -4.033000000    -2.415000000
C     0.598000000    -4.533000000    -0.522000000
O    -0.542000000    -5.065000000     0.022000000
C    -1.245000000    -4.092000000     0.848000000
H    -0.781000000    -3.126000000     0.601000000
C    -2.724000000    -3.971000000     0.356000000
C    -3.644000000    -3.307000000     1.207000000
H    -3.325000000    -2.905000000     2.165000000
C    -3.226000000    -4.483000000    -0.854000000
H    -2.553000000    -5.136000000    -1.403000000
C    -4.518000000    -4.193000000    -1.293000000
O    -4.988000000    -4.620000000    -2.579000000
C    -5.372000000    -3.417000000    -0.502000000
H    -6.423000000    -3.204000000    -0.677000000
C    -4.943000000    -3.099000000     0.797000000
O    -5.873000000    -2.647000000     1.669000000
C    -5.579000000    -2.189000000     2.918000000
C    -5.116000000    -0.913000000     3.198000000
H    -4.968000000    -0.143000000     2.445000000
C    -5.955000000    -3.033000000     3.995000000
H    -6.443000000    -3.984000000     3.801000000
C    -5.830000000    -2.624000000     5.305000000
H    -6.251000000    -3.281000000     6.061000000
C    -5.441000000    -1.334000000     5.561000000
H    -5.516000000    -0.845000000     6.530000000
C    -5.010000000    -0.480000000     4.524000000
O    -4.825000000     0.804000000     4.798000000
C    -3.627000000     1.415000000     4.547000000
C    -3.638000000     2.762000000     4.334000000
H    -4.584000000     3.268000000     4.157000000
C    -2.512000000     3.467000000     4.098000000
O    -2.644000000     4.832000000     3.791000000
C    -1.576000000     5.641000000     3.570000000
C    -1.153000000     6.001000000     2.282000000
H    -1.764000000     5.586000000     1.485000000
C    -0.768000000     6.025000000     4.581000000
H    -1.105000000     5.677000000     5.554000000
C     0.370000000     6.829000000     4.396000000
H     0.963000000     7.195000000     5.230000000
C     0.767000000     7.245000000     3.148000000
H     1.585000000     7.933000000     2.950000000
C    -0.053000000     6.793000000     2.071000000
O     0.373000000     7.184000000     0.841000000
C     0.848000000     6.308000000    -0.074000000
C     0.541000000     6.492000000    -1.450000000
H    -0.153000000     7.218000000    -1.865000000
C     1.054000000     5.618000000    -2.370000000
O     0.684000000     5.806000000    -3.682000000
C     1.098000000     4.979000000    -4.640000000
C     0.252000000     4.019000000    -5.050000000
H    -0.763000000     4.019000000    -4.660000000
C     2.373000000     5.117000000    -5.177000000
H     3.047000000     5.929000000    -4.918000000
C     2.812000000     4.128000000    -6.050000000
H     3.849000000     4.089000000    -6.373000000
C     1.978000000     3.110000000    -6.452000000
H     2.437000000     2.342000000    -7.069000000
C     0.629000000     3.082000000    -5.960000000
O    -0.256000000     2.073000000    -6.265000000
C    -0.315000000     0.815000000    -5.721000000
C    -1.444000000     0.032000000    -5.965000000
H    -2.280000000     0.505000000    -6.474000000
C    -1.511000000    -1.319000000    -5.515000000
O    -2.661000000    -2.053000000    -5.881000000
C    -2.999000000    -3.310000000    -5.362000000
C    -2.743000000    -4.469000000    -6.034000000
H    -2.220000000    -4.378000000    -6.983000000
C    -3.102000000    -5.689000000    -5.556000000
H    -2.901000000    -6.598000000    -6.117000000
C    -3.855000000    -5.716000000    -4.390000000
H    -4.019000000    -6.706000000    -3.973000000
C    -4.231000000    -4.524000000    -3.727000000
C    -3.711000000    -3.320000000    -4.172000000
H    -3.931000000    -2.445000000    -3.567000000
C    -1.195000000     2.738000000    -0.646000000
H    -1.032000000     3.534000000    -1.368000000
C    -0.380000000     1.598000000    -0.672000000
H     0.371000000     1.427000000    -1.439000000
C    -0.549000000     0.656000000     0.326000000
H     0.123000000    -0.211000000     0.378000000
C    -1.632000000     0.711000000     1.223000000
H    -1.891000000    -0.063000000     1.941000000
C    -2.427000000     1.893000000     1.178000000
H    -3.272000000     1.904000000     1.861000000
C    -2.262000000     2.836000000     0.200000000
C    -3.277000000     3.981000000     0.178000000
O    -4.371000000     3.878000000     0.734000000
O    -3.077000000     4.898000000    -0.538000000
O    -4.959000000     6.048000000     5.057000000
H    -4.418000000     5.598000000     4.407000000
H    -5.726000000     5.485000000     5.160000000
O    -6.301000000     8.490000000    -0.256000000
H    -5.966000000     7.786000000    -0.811000000
H    -6.055000000     8.233000000     0.633000000
O    -3.597000000     2.363000000    -3.621000000
H    -3.248000000     3.245000000    -3.485000000
H    -2.821000000     1.807000000    -3.690000000
O    -7.149000000     3.344000000    -3.166000000
H    -6.866000000     3.154000000    -2.272000000
H    -8.006000000     3.758000000    -3.063000000
O    -2.899000000     7.458000000     0.109000000
H    -2.648000000     6.540000000     0.012000000
H    -3.614000000     7.578000000    -0.516000000
O    -8.026000000     0.300000000    -0.143000000
H    -7.176000000    -0.006000000     0.174000000
H    -8.330000000    -0.396000000    -0.726000000
O    -3.688000000     8.687000000     4.403000000
H    -4.412000000     9.218000000     4.736000000
H    -3.971000000     7.783000000     4.541000000
O    -2.279000000     9.340000000     2.045000000
H    -2.728000000     9.043000000     2.837000000
H    -2.349000000     8.602000000     1.439000000
O    -5.664000000     8.118000000     2.297000000
H    -5.613000000     7.164000000     2.357000000
H    -5.976000000     8.396000000     3.158000000
O    -2.687000000     4.844000000    -3.058000000
H    -2.788000000     4.811000000    -2.106000000
H    -2.631000000     5.777000000    -3.261000000
O    -5.678000000     5.464000000     2.322000000
H    -6.271000000     4.859000000     2.766000000
H    -5.192000000     4.916000000     1.706000000
O    -5.235000000     0.163000000    -0.615000000
H    -4.315000000    -0.099000000    -0.570000000
H    -5.378000000     0.375000000    -1.538000000
O    -2.854000000     7.414000000    -3.658000000
H    -2.742000000     8.294000000    -3.298000000
H    -2.129000000     7.314000000    -4.275000000
O    -7.948000000     4.097000000     3.517000000
H    -8.785000000     4.052000000     3.980000000
H    -8.020000000     3.437000000     2.828000000
O    -6.277000000     3.999000000    -5.659000000
H    -6.274000000     3.479000000    -4.856000000
H    -5.862000000     4.825000000    -5.412000000
O    -6.368000000     2.962000000    -0.509000000
H    -6.583000000     2.095000000    -0.166000000
H    -5.496000000     3.149000000    -0.159000000
O    -5.417000000     6.497000000    -3.741000000
H    -5.580000000     6.142000000    -2.867000000
H    -4.513000000     6.811000000    -3.707000000
O    -5.789000000     0.892000000    -3.452000000
H    -6.512000000     1.488000000    -3.257000000
H    -5.053000000     1.468000000    -3.661000000
O    -5.555000000     5.914000000    -0.906000000
H    -6.034000000     5.086000000    -0.900000000
H    -4.677000000     5.686000000    -0.601000000
