215
-1435.87460
C    -1.032000000     2.391000000     4.804000000
H    -0.007000000     2.666000000     5.040000000
C    -1.275000000     1.031000000     4.476000000
C    -2.571000000     0.719000000     4.037000000
H    -2.757000000    -0.309000000     3.738000000
C    -0.211000000    -0.034000000     4.343000000
O     1.008000000     0.222000000     5.151000000
H     0.076000000    -0.175000000     3.290000000
O    -0.700000000    -1.378000000     4.610000000
C    -0.367000000    -2.414000000     3.770000000
C    -1.328000000    -2.950000000     2.945000000
H    -2.307000000    -2.479000000     2.990000000
C    -1.070000000    -3.937000000     2.029000000
O    -2.093000000    -4.246000000     1.127000000
C     0.195000000    -4.494000000     2.022000000
C     0.532000000    -5.594000000     0.973000000
H     1.359000000    -6.200000000     1.347000000
C     0.870000000    -5.006000000    -0.432000000
C     2.112000000    -4.460000000    -0.648000000
H     2.849000000    -4.629000000     0.132000000
H    -0.278000000    -6.324000000     0.914000000
C     1.156000000    -3.955000000     2.848000000
H     2.191000000    -4.276000000     2.769000000
C     0.916000000    -2.927000000     3.786000000
C     2.032000000    -2.460000000     4.627000000
H     2.777000000    -3.211000000     4.899000000
H     1.575000000    -2.200000000     5.584000000
C     2.661000000    -1.164000000     4.016000000
C     3.768000000    -1.208000000     3.199000000
H     4.270000000    -2.139000000     2.945000000
C     2.154000000     0.097000000     4.346000000
C     2.687000000     1.275000000     3.877000000
H     2.207000000     2.210000000     4.157000000
C     3.736000000     1.175000000     2.906000000
O     4.122000000     2.200000000     2.099000000
C     3.497000000     2.285000000     0.805000000
C     2.757000000     3.543000000     0.516000000
C     2.429000000     3.858000000    -0.784000000
H     2.630000000     3.128000000    -1.563000000
C     2.392000000     4.439000000     1.524000000
H     2.751000000     4.350000000     2.546000000
O     4.452000000     1.947000000    -0.254000000
H     2.771000000     1.461000000     0.871000000
C     4.224000000    -0.064000000     2.526000000
C     5.396000000    -0.138000000     1.571000000
H     6.225000000    -0.758000000     1.919000000
H     5.902000000     0.829000000     1.569000000
C     4.880000000    -0.427000000     0.145000000
C     4.658000000    -1.702000000    -0.382000000
H     4.922000000    -2.599000000     0.172000000
C     4.504000000     0.618000000    -0.640000000
C     4.044000000     0.383000000    -1.954000000
H     3.795000000     1.222000000    -2.600000000
C     3.805000000    -0.863000000    -2.431000000
O     3.109000000    -1.004000000    -3.612000000
C     1.762000000    -1.440000000    -3.594000000
C     0.985000000    -0.706000000    -4.750000000
C     1.244000000     0.655000000    -4.888000000
H     1.873000000     1.208000000    -4.197000000
C    -0.004000000    -1.283000000    -5.452000000
H    -0.372000000    -2.280000000    -5.221000000
O     1.806000000    -2.804000000    -3.923000000
H     1.319000000    -1.286000000    -2.599000000
C     4.166000000    -1.957000000    -1.661000000
C     3.918000000    -3.420000000    -1.993000000
H     4.550000000    -4.089000000    -1.406000000
H     4.179000000    -3.546000000    -3.046000000
C     2.536000000    -3.856000000    -1.846000000
C     1.555000000    -3.642000000    -2.816000000
C     0.275000000    -4.084000000    -2.613000000
H    -0.495000000    -3.776000000    -3.317000000
C    -0.056000000    -4.711000000    -1.407000000
O    -1.340000000    -4.726000000    -1.063000000
C    -1.974000000    -3.718000000    -0.195000000
H    -1.407000000    -2.776000000    -0.229000000
C    -3.312000000    -3.234000000    -0.646000000
C    -4.245000000    -2.791000000     0.266000000
H    -4.039000000    -2.857000000     1.332000000
C    -3.660000000    -3.318000000    -1.920000000
H    -2.896000000    -3.710000000    -2.586000000
C    -4.893000000    -2.887000000    -2.412000000
O    -5.260000000    -2.879000000    -3.771000000
C    -5.802000000    -2.412000000    -1.474000000
H    -6.732000000    -1.985000000    -1.842000000
C    -5.542000000    -2.437000000    -0.142000000
O    -6.568000000    -2.025000000     0.687000000
C    -6.299000000    -1.429000000     1.925000000
C    -5.522000000    -0.326000000     2.075000000
H    -5.155000000     0.162000000     1.176000000
C    -6.950000000    -2.003000000     3.039000000
H    -7.686000000    -2.772000000     2.816000000
C    -6.692000000    -1.553000000     4.336000000
H    -7.267000000    -1.938000000     5.174000000
C    -5.858000000    -0.385000000     4.472000000
H    -5.626000000     0.058000000     5.437000000
C    -5.332000000     0.200000000     3.313000000
O    -4.785000000     1.459000000     3.374000000
C    -3.531000000     1.697000000     3.914000000
C    -3.234000000     3.023000000     4.141000000
H    -4.010000000     3.761000000     3.960000000
C    -2.009000000     3.359000000     4.693000000
O    -1.760000000     4.703000000     5.025000000
C    -0.747000000     5.597000000     4.735000000
C    -0.079000000     5.670000000     3.504000000
H    -0.342000000     5.000000000     2.690000000
C    -0.460000000     6.497000000     5.764000000
H    -1.077000000     6.550000000     6.657000000
C     0.576000000     7.484000000     5.517000000
H     0.872000000     8.216000000     6.264000000
C     1.221000000     7.513000000     4.285000000
H     1.891000000     8.365000000     4.201000000
C     0.894000000     6.608000000     3.309000000
O     1.636000000     6.709000000     2.156000000
C     1.883000000     5.692000000     1.216000000
C     1.431000000     5.955000000    -0.071000000
H     0.827000000     6.849000000    -0.204000000
C     1.721000000     5.114000000    -1.077000000
O     1.460000000     5.515000000    -2.336000000
C     1.969000000     4.957000000    -3.481000000
C     1.191000000     4.075000000    -4.169000000
H     0.162000000     3.927000000    -3.850000000
C     3.287000000     5.134000000    -3.807000000
H     3.827000000     5.770000000    -3.109000000
C     3.818000000     4.547000000    -4.928000000
H     4.849000000     4.619000000    -5.265000000
C     3.028000000     3.673000000    -5.671000000
H     3.481000000     3.189000000    -6.532000000
C     1.672000000     3.457000000    -5.340000000
O     0.807000000     2.697000000    -6.030000000
C     0.473000000     1.400000000    -5.821000000
C    -0.504000000     0.778000000    -6.556000000
H    -1.210000000     1.340000000    -7.163000000
C    -0.789000000    -0.557000000    -6.330000000
O    -1.950000000    -0.985000000    -6.995000000
C    -2.646000000    -2.010000000    -6.369000000
C    -2.541000000    -3.204000000    -6.987000000
H    -1.936000000    -3.389000000    -7.870000000
C    -3.368000000    -4.264000000    -6.632000000
H    -3.318000000    -5.138000000    -7.277000000
C    -4.167000000    -4.181000000    -5.460000000
H    -4.765000000    -5.014000000    -5.099000000
C    -4.314000000    -2.948000000    -4.807000000
C    -3.473000000    -1.869000000    -5.207000000
H    -3.501000000    -0.894000000    -4.726000000
C    -0.851000000     1.548000000    -1.580000000
H    -0.700000000     1.956000000    -2.576000000
C     0.187000000     0.734000000    -1.016000000
H     1.201000000     0.748000000    -1.407000000
C     0.016000000     0.043000000     0.155000000
H     0.886000000    -0.544000000     0.581000000
C    -1.243000000     0.179000000     0.780000000
H    -1.377000000    -0.316000000     1.738000000
C    -2.213000000     0.917000000     0.273000000
H    -3.175000000     0.911000000     0.778000000
C    -2.122000000     1.550000000    -0.914000000
C    -3.160000000     2.468000000    -1.336000000
O    -4.139000000     2.651000000    -0.623000000
O    -2.883000000     3.258000000    -2.252000000
O    -2.592000000     3.644000000    -5.055000000
H    -2.139000000     4.452000000    -5.293000000
H    -2.657000000     3.678000000    -4.100000000
O    -7.342000000     4.586000000    -2.134000000
H    -8.158000000     4.635000000    -2.633000000
H    -6.913000000     3.793000000    -2.455000000
O    -2.019000000     6.349000000     0.966000000
H    -2.327000000     7.253000000     1.041000000
H    -2.787000000     5.817000000     1.171000000
O    -6.639000000     2.572000000     0.415000000
H    -5.741000000     2.418000000     0.122000000
H    -7.069000000     1.721000000     0.326000000
O    -5.780000000     5.801000000     2.922000000
H    -6.426000000     5.300000000     3.420000000
H    -5.207000000     5.137000000     2.538000000
O    -4.473000000     7.565000000    -4.536000000
H    -4.804000000     7.382000000    -5.415000000
H    -4.371000000     6.702000000    -4.134000000
O    -6.484000000    -0.151000000    -5.670000000
H    -6.022000000    -0.823000000    -6.172000000
H    -5.804000000     0.480000000    -5.433000000
O    -4.421000000     1.590000000    -5.133000000
H    -4.755000000     1.875000000    -4.283000000
H    -3.662000000     2.150000000    -5.293000000
O    -7.634000000     7.400000000    -2.177000000
H    -6.872000000     7.055000000    -1.711000000
H    -8.234000000     6.657000000    -2.237000000
O    -8.905000000     4.654000000     0.541000000
H    -8.359000000     4.054000000     0.034000000
H    -8.560000000     4.598000000     1.432000000
O    -1.435000000     5.585000000    -1.517000000
H    -2.085000000     4.895000000    -1.653000000
H    -1.443000000     5.738000000    -0.572000000
O    -4.081000000     4.249000000     1.485000000
H    -3.274000000     3.999000000     1.935000000
H    -4.106000000     3.690000000     0.708000000
O    -0.304000000     8.058000000    -2.491000000
H    -1.033000000     8.598000000    -2.187000000
H    -0.458000000     7.202000000    -2.091000000
O    -6.130000000     2.235000000    -2.910000000
H    -5.611000000     2.106000000    -2.115000000
H    -6.647000000     1.433000000    -2.990000000
O    -5.401000000     2.207000000    -7.631000000
H    -5.284000000     2.036000000    -6.697000000
H    -4.683000000     2.797000000    -7.859000000
O    -6.048000000     5.926000000    -0.102000000
H    -6.422000000     5.268000000    -0.688000000
H    -5.238000000     5.530000000     0.217000000
O    -7.833000000    -0.139000000    -3.229000000
H    -8.134000000    -1.019000000    -3.000000000
H    -7.230000000    -0.274000000    -3.960000000
O    -4.363000000     5.764000000    -7.015000000
H    -4.020000000     5.661000000    -7.902000000
H    -3.754000000     5.273000000    -6.463000000
O    -4.513000000     5.042000000    -3.224000000
H    -5.300000000     4.882000000    -2.705000000
H    -3.930000000     4.315000000    -3.006000000
