215
-1430.01406
C     0.153000000     1.990000000     4.847000000
H     1.235000000     2.097000000     4.857000000
C    -0.496000000     0.746000000     4.948000000
C    -1.922000000     0.685000000     5.156000000
H    -2.486000000    -0.240000000     5.069000000
C     0.176000000    -0.503000000     4.439000000
O     1.576000000    -0.435000000     4.739000000
H    -0.028000000    -0.353000000     3.368000000
O    -0.365000000    -1.724000000     4.807000000
C    -0.471000000    -2.686000000     3.769000000
C    -1.715000000    -2.793000000     3.069000000
H    -2.630000000    -2.230000000     3.238000000
C    -1.798000000    -3.760000000     2.077000000
O    -2.975000000    -3.784000000     1.402000000
C    -0.699000000    -4.522000000     1.649000000
C    -0.793000000    -5.505000000     0.409000000
H    -0.035000000    -6.286000000     0.506000000
C    -0.507000000    -4.706000000    -0.883000000
C     0.783000000    -4.740000000    -1.373000000
H     1.491000000    -5.395000000    -0.872000000
H    -1.738000000    -6.050000000     0.456000000
C     0.554000000    -4.393000000     2.312000000
H     1.458000000    -4.901000000     1.987000000
C     0.626000000    -3.397000000     3.291000000
C     1.965000000    -3.235000000     4.024000000
H     2.619000000    -4.109000000     4.055000000
H     1.728000000    -2.971000000     5.057000000
C     2.762000000    -2.176000000     3.310000000
C     3.728000000    -2.536000000     2.370000000
H     3.865000000    -3.572000000     2.072000000
C     2.577000000    -0.857000000     3.786000000
C     3.233000000     0.195000000     3.169000000
H     2.929000000     1.201000000     3.447000000
C     4.109000000    -0.101000000     2.069000000
O     4.665000000     0.900000000     1.371000000
C     4.034000000     1.295000000     0.158000000
C     3.926000000     2.812000000     0.015000000
C     3.702000000     3.448000000    -1.227000000
H     3.709000000     2.833000000    -2.123000000
C     3.752000000     3.580000000     1.147000000
H     3.744000000     3.057000000     2.099000000
O     4.708000000     0.624000000    -0.865000000
H     3.019000000     0.884000000     0.056000000
C     4.363000000    -1.473000000     1.699000000
C     5.232000000    -1.788000000     0.444000000
H     5.608000000    -2.799000000     0.612000000
H     6.138000000    -1.182000000     0.385000000
C     4.478000000    -1.775000000    -0.893000000
C     3.918000000    -2.889000000    -1.481000000
H     4.046000000    -3.821000000    -0.938000000
C     4.258000000    -0.533000000    -1.482000000
C     3.639000000    -0.487000000    -2.674000000
H     3.454000000     0.525000000    -3.026000000
C     3.137000000    -1.601000000    -3.355000000
O     2.296000000    -1.387000000    -4.396000000
C     0.943000000    -1.261000000    -4.135000000
C     0.239000000    -0.118000000    -4.729000000
C     0.978000000     1.049000000    -5.093000000
H     2.063000000     1.026000000    -5.030000000
C    -1.162000000    -0.071000000    -4.767000000
H    -1.671000000    -1.008000000    -4.558000000
O     0.237000000    -2.532000000    -4.337000000
H     0.833000000    -1.028000000    -3.066000000
C     3.162000000    -2.784000000    -2.683000000
C     2.483000000    -4.083000000    -3.106000000
H     2.889000000    -5.033000000    -2.752000000
H     2.336000000    -4.157000000    -4.185000000
C     1.051000000    -4.020000000    -2.509000000
C     0.032000000    -3.289000000    -3.167000000
C    -1.315000000    -3.423000000    -2.696000000
H    -2.135000000    -2.872000000    -3.149000000
C    -1.513000000    -4.052000000    -1.496000000
O    -2.826000000    -4.158000000    -0.992000000
C    -3.076000000    -3.173000000     0.076000000
H    -2.372000000    -2.334000000    -0.028000000
C    -4.320000000    -2.499000000    -0.146000000
C    -4.953000000    -1.941000000     0.929000000
H    -4.446000000    -2.027000000     1.886000000
C    -4.791000000    -2.234000000    -1.449000000
H    -4.312000000    -2.513000000    -2.384000000
C    -6.004000000    -1.606000000    -1.588000000
O    -6.507000000    -1.351000000    -2.872000000
C    -6.610000000    -0.933000000    -0.566000000
H    -7.485000000    -0.307000000    -0.722000000
C    -6.090000000    -1.075000000     0.668000000
O    -6.598000000    -0.261000000     1.699000000
C    -6.245000000    -0.161000000     3.067000000
C    -5.453000000     0.892000000     3.540000000
H    -5.277000000     1.647000000     2.779000000
C    -6.435000000    -1.237000000     3.864000000
H    -6.888000000    -2.137000000     3.457000000
C    -6.070000000    -1.264000000     5.211000000
H    -6.371000000    -2.114000000     5.817000000
C    -5.358000000    -0.187000000     5.741000000
H    -5.000000000    -0.214000000     6.767000000
C    -4.972000000     0.852000000     4.850000000
O    -4.129000000     1.839000000     5.358000000
C    -2.716000000     1.853000000     5.204000000
C    -2.090000000     3.061000000     5.064000000
H    -2.642000000     3.996000000     5.010000000
C    -0.677000000     3.130000000     4.944000000
O    -0.154000000     4.345000000     4.772000000
C     1.212000000     4.656000000     4.592000000
C     1.869000000     4.842000000     3.370000000
H     1.285000000     4.741000000     2.459000000
C     2.007000000     4.867000000     5.766000000
H     1.577000000     4.676000000     6.745000000
C     3.360000000     5.077000000     5.733000000
H     3.900000000     5.029000000     6.675000000
C     3.983000000     5.277000000     4.557000000
H     5.062000000     5.384000000     4.490000000
C     3.252000000     5.188000000     3.397000000
O     3.808000000     5.740000000     2.262000000
C     3.687000000     4.975000000     1.077000000
C     3.566000000     5.611000000    -0.147000000
H     3.604000000     6.697000000    -0.185000000
C     3.389000000     4.854000000    -1.276000000
O     3.240000000     5.551000000    -2.443000000
C     3.132000000     5.023000000    -3.686000000
C     2.040000000     4.347000000    -4.155000000
H     1.148000000     4.146000000    -3.568000000
C     4.222000000     5.282000000    -4.513000000
H     5.122000000     5.738000000    -4.109000000
C     4.181000000     4.884000000    -5.840000000
H     5.042000000     4.991000000    -6.495000000
C     3.099000000     4.217000000    -6.270000000
H     2.979000000     3.919000000    -7.308000000
C     2.024000000     3.912000000    -5.478000000
O     0.852000000     3.435000000    -6.019000000
C     0.296000000     2.199000000    -5.556000000
C    -1.086000000     2.197000000    -5.606000000
H    -1.658000000     3.043000000    -5.979000000
C    -1.848000000     1.095000000    -5.280000000
O    -3.241000000     1.109000000    -5.394000000
C    -3.998000000     0.021000000    -5.187000000
C    -4.035000000    -0.868000000    -6.252000000
H    -3.398000000    -0.704000000    -7.118000000
C    -4.823000000    -2.009000000    -6.093000000
H    -4.859000000    -2.812000000    -6.824000000
C    -5.623000000    -2.150000000    -4.973000000
H    -6.346000000    -2.952000000    -4.852000000
C    -5.635000000    -1.203000000    -3.970000000
C    -4.804000000    -0.077000000    -4.042000000
H    -4.845000000     0.638000000    -3.225000000
C    -2.229000000     1.561000000    -1.388000000
H    -2.269000000     2.302000000    -2.182000000
C    -1.067000000     0.864000000    -1.283000000
H    -0.286000000     1.076000000    -2.009000000
C    -0.895000000    -0.059000000    -0.227000000
H     0.000000000    -0.703000000    -0.048000000
C    -1.873000000    -0.149000000     0.686000000
H    -1.750000000    -0.873000000     1.487000000
C    -3.085000000     0.542000000     0.597000000
H    -3.725000000     0.491000000     1.474000000
C    -3.214000000     1.478000000    -0.398000000
C    -4.397000000     2.521000000    -0.469000000
O    -5.104000000     2.592000000     0.498000000
O    -4.555000000     3.321000000    -1.375000000
O    -7.500000000     2.365000000    -0.494000000
H    -6.690000000     2.502000000    -0.004000000
H    -7.283000000     2.619000000    -1.391000000
O    -7.506000000     5.765000000    -1.416000000
H    -6.837000000     5.794000000    -0.732000000
H    -8.219000000     5.255000000    -1.033000000
O    -1.255000000     4.195000000     1.217000000
H    -2.001000000     3.969000000     1.773000000
H    -1.180000000     3.462000000     0.606000000
O    -9.237000000     0.532000000     1.717000000
H    -8.349000000     0.664000000     1.384000000
H    -9.634000000    -0.083000000     1.101000000
O    -9.156000000    -0.665000000    -3.034000000
H    -9.214000000    -0.457000000    -3.967000000
H    -8.519000000    -0.040000000    -2.689000000
O    -6.895000000     5.681000000    -6.041000000
H    -6.422000000     6.482000000    -6.268000000
H    -6.523000000     5.414000000    -5.200000000
O    -3.562000000     3.977000000     2.625000000
H    -3.935000000     3.526000000     1.868000000
H    -4.255000000     3.950000000     3.285000000
O    -0.149000000     6.201000000    -2.145000000
H    -1.025000000     6.265000000    -1.762000000
H     0.330000000     6.939000000    -1.769000000
O    -4.583000000     3.486000000    -6.862000000
H    -5.144000000     2.868000000    -7.330000000
H    -4.256000000     2.991000000    -6.111000000
O    -4.522000000     7.407000000     3.084000000
H    -3.729000000     7.143000000     3.550000000
H    -4.296000000     7.318000000     2.158000000
O    -6.123000000     4.661000000    -3.608000000
H    -6.504000000     5.243000000    -2.951000000
H    -5.381000000     4.251000000    -3.164000000
O    -5.690000000     5.337000000     0.489000000
H    -5.425000000     4.488000000     0.136000000
H    -5.883000000     5.164000000     1.411000000
O    -7.938000000     2.570000000    -3.898000000
H    -7.250000000     3.199000000    -3.679000000
H    -7.608000000     2.115000000    -4.673000000
O    -5.650000000     4.892000000     3.991000000
H    -5.371000000     5.807000000     3.961000000
H    -6.592000000     4.935000000     4.155000000
O    -9.474000000     4.559000000    -0.162000000
H    -9.731000000     4.772000000     0.735000000
H    -9.259000000     3.626000000    -0.135000000
O    -7.723000000     2.858000000     3.810000000
H    -7.283000000     2.021000000     3.664000000
H    -8.332000000     2.941000000     3.076000000
O    -2.892000000     5.679000000    -1.366000000
H    -2.921000000     6.121000000    -0.517000000
H    -3.612000000     5.050000000    -1.333000000
O    -1.797000000     5.286000000    -4.086000000
H    -1.048000000     5.520000000    -3.538000000
H    -2.483000000     5.043000000    -3.464000000
O    -1.734000000     6.809000000     1.474000000
H    -1.812000000     6.993000000     2.410000000
H    -1.464000000     5.892000000     1.431000000
