215
-1463.13394
C    -0.183000000     2.871000000     4.700000000
H     0.880000000     3.089000000     4.766000000
C    -0.699000000     1.608000000     4.313000000
C    -2.041000000     1.566000000     3.901000000
H    -2.476000000     0.629000000     3.566000000
C     0.262000000     0.450000000     4.130000000
O     1.642000000     0.621000000     4.711000000
H     0.259000000     0.285000000     3.042000000
O    -0.193000000    -0.770000000     4.778000000
C    -0.119000000    -1.923000000     4.083000000
C    -1.325000000    -2.493000000     3.606000000
H    -2.214000000    -1.873000000     3.678000000
C    -1.317000000    -3.540000000     2.656000000
O    -2.457000000    -3.817000000     1.899000000
C    -0.085000000    -4.177000000     2.377000000
C    -0.034000000    -5.333000000     1.425000000
H     0.731000000    -6.088000000     1.620000000
C     0.205000000    -4.864000000    -0.011000000
C     1.508000000    -4.814000000    -0.624000000
H     2.411000000    -5.060000000    -0.071000000
H    -0.972000000    -5.892000000     1.440000000
C     1.056000000    -3.706000000     3.017000000
H     2.049000000    -4.076000000     2.776000000
C     1.078000000    -2.609000000     3.885000000
C     2.436000000    -2.210000000     4.463000000
H     3.135000000    -3.050000000     4.486000000
H     2.270000000    -1.938000000     5.507000000
C     3.057000000    -1.037000000     3.745000000
C     3.906000000    -1.398000000     2.713000000
H     4.023000000    -2.461000000     2.519000000
C     2.669000000     0.277000000     3.914000000
C     3.250000000     1.282000000     3.128000000
H     2.891000000     2.308000000     3.157000000
C     4.277000000     0.949000000     2.222000000
O     4.693000000     1.899000000     1.281000000
C     3.950000000     1.941000000     0.080000000
C     3.541000000     3.389000000    -0.296000000
C     3.252000000     3.701000000    -1.582000000
H     3.296000000     2.928000000    -2.346000000
C     3.326000000     4.334000000     0.760000000
H     3.564000000     4.142000000     1.803000000
O     4.635000000     1.366000000    -1.037000000
H     2.963000000     1.467000000     0.185000000
C     4.648000000    -0.355000000     1.977000000
C     5.455000000    -0.713000000     0.712000000
H     5.968000000    -1.625000000     1.024000000
H     6.270000000    -0.006000000     0.550000000
C     4.646000000    -0.981000000    -0.520000000
C     4.191000000    -2.278000000    -0.852000000
H     4.319000000    -3.042000000    -0.090000000
C     4.363000000     0.059000000    -1.434000000
C     3.627000000    -0.215000000    -2.621000000
H     3.200000000     0.597000000    -3.204000000
C     3.287000000    -1.518000000    -2.841000000
O     2.355000000    -1.682000000    -3.938000000
C     0.967000000    -1.907000000    -3.748000000
C     0.006000000    -0.981000000    -4.593000000
C     0.414000000     0.292000000    -4.877000000
H     1.358000000     0.678000000    -4.500000000
C    -1.246000000    -1.452000000    -4.939000000
H    -1.557000000    -2.332000000    -4.382000000
O     0.653000000    -3.319000000    -3.896000000
H     0.723000000    -1.664000000    -2.703000000
C     3.528000000    -2.590000000    -2.048000000
C     3.100000000    -4.093000000    -2.447000000
H     3.744000000    -4.820000000    -1.948000000
H     3.207000000    -4.266000000    -3.520000000
C     1.677000000    -4.365000000    -1.969000000
C     0.548000000    -4.013000000    -2.719000000
C    -0.782000000    -4.144000000    -2.176000000
H    -1.678000000    -3.835000000    -2.709000000
C    -0.885000000    -4.595000000    -0.829000000
O    -2.134000000    -4.569000000    -0.319000000
C    -2.441000000    -3.455000000     0.543000000
H    -1.682000000    -2.695000000     0.306000000
C    -3.824000000    -2.941000000     0.235000000
C    -4.571000000    -2.250000000     1.221000000
H    -4.270000000    -2.244000000     2.265000000
C    -4.279000000    -3.030000000    -1.116000000
H    -3.763000000    -3.655000000    -1.840000000
C    -5.534000000    -2.448000000    -1.478000000
O    -6.125000000    -2.594000000    -2.664000000
C    -6.237000000    -1.733000000    -0.521000000
H    -7.128000000    -1.155000000    -0.754000000
C    -5.827000000    -1.707000000     0.838000000
O    -6.583000000    -0.998000000     1.694000000
C    -6.073000000    -0.385000000     2.847000000
C    -5.414000000     0.807000000     2.601000000
H    -5.242000000     1.105000000     1.570000000
C    -6.325000000    -0.900000000     4.124000000
H    -6.838000000    -1.851000000     4.239000000
C    -5.887000000    -0.153000000     5.240000000
H    -6.077000000    -0.550000000     6.234000000
C    -5.256000000     1.057000000     5.061000000
H    -4.828000000     1.557000000     5.925000000
C    -4.930000000     1.477000000     3.771000000
O    -4.139000000     2.601000000     3.571000000
C    -2.850000000     2.694000000     3.867000000
C    -2.357000000     3.896000000     4.332000000
H    -3.015000000     4.748000000     4.481000000
C    -1.031000000     3.998000000     4.729000000
O    -0.480000000     5.236000000     4.983000000
C     0.760000000     5.644000000     4.518000000
C     1.005000000     5.957000000     3.158000000
H     0.139000000     5.994000000     2.502000000
C     1.871000000     5.587000000     5.378000000
H     1.650000000     5.240000000     6.384000000
C     3.129000000     6.110000000     5.006000000
H     3.974000000     6.069000000     5.688000000
C     3.347000000     6.451000000     3.636000000
H     4.275000000     6.904000000     3.296000000
C     2.297000000     6.330000000     2.708000000
O     2.556000000     6.591000000     1.406000000
C     2.855000000     5.646000000     0.410000000
C     2.644000000     5.954000000    -0.909000000
H     2.278000000     6.965000000    -1.066000000
C     2.759000000     4.979000000    -1.906000000
O     2.331000000     5.351000000    -3.168000000
C     2.361000000     4.589000000    -4.339000000
C     1.139000000     4.075000000    -4.782000000
H     0.203000000     4.262000000    -4.260000000
C     3.532000000     4.034000000    -4.820000000
H     4.512000000     4.357000000    -4.481000000
C     3.487000000     3.087000000    -5.864000000
H     4.412000000     2.699000000    -6.284000000
C     2.229000000     2.635000000    -6.280000000
H     2.142000000     1.843000000    -7.020000000
C     1.089000000     3.074000000    -5.719000000
O    -0.079000000     2.467000000    -6.050000000
C    -0.401000000     1.127000000    -5.671000000
C    -1.562000000     0.623000000    -6.218000000
H    -2.194000000     1.190000000    -6.896000000
C    -2.012000000    -0.647000000    -5.794000000
O    -3.300000000    -1.094000000    -6.261000000
C    -4.097000000    -2.027000000    -5.663000000
C    -4.025000000    -3.319000000    -6.204000000
H    -3.667000000    -3.558000000    -7.202000000
C    -4.757000000    -4.299000000    -5.587000000
H    -4.958000000    -5.221000000    -6.127000000
C    -5.383000000    -4.111000000    -4.366000000
H    -6.067000000    -4.886000000    -4.029000000
C    -5.337000000    -2.853000000    -3.809000000
C    -4.663000000    -1.757000000    -4.404000000
H    -4.484000000    -0.785000000    -3.951000000
C    -0.595000000     1.714000000    -1.546000000
H    -0.348000000     2.262000000    -2.452000000
C     0.362000000     0.750000000    -1.089000000
H     1.361000000     0.778000000    -1.517000000
C    -0.010000000    -0.138000000    -0.119000000
H     0.710000000    -0.832000000     0.237000000
C    -1.266000000    -0.019000000     0.477000000
H    -1.619000000    -0.647000000     1.291000000
C    -2.185000000     0.899000000     0.020000000
H    -3.201000000     0.812000000     0.395000000
C    -1.912000000     1.773000000    -1.007000000
C    -2.926000000     2.792000000    -1.571000000
O    -4.111000000     2.711000000    -1.272000000
O    -2.503000000     3.627000000    -2.286000000
O    -2.974000000     5.284000000    -6.772000000
H    -3.561000000     4.807000000    -6.185000000
H    -2.994000000     6.185000000    -6.450000000
O    -6.605000000     1.928000000    -0.470000000
H    -5.706000000     1.947000000    -0.797000000
H    -7.102000000     1.486000000    -1.158000000
O    -6.694000000     4.298000000     3.069000000
H    -7.182000000     3.475000000     3.052000000
H    -5.822000000     4.066000000     2.750000000
O     0.089000000     3.308000000     1.473000000
H     0.822000000     3.748000000     1.043000000
H    -0.248000000     2.703000000     0.813000000
O    -8.193000000     6.522000000    -3.727000000
H    -7.459000000     6.898000000    -4.214000000
H    -7.787000000     6.104000000    -2.967000000
O    -4.820000000     4.408000000     0.648000000
H    -4.834000000     3.778000000    -0.074000000
H    -5.290000000     5.170000000     0.310000000
O    -0.046000000     7.597000000    -2.061000000
H    -0.021000000     6.669000000    -1.829000000
H    -0.961000000     7.762000000    -2.288000000
O    -7.464000000     4.106000000    -5.422000000
H    -6.831000000     3.520000000    -5.008000000
H    -7.038000000     4.964000000    -5.412000000
O    -5.997000000     0.931000000    -5.467000000
H    -5.203000000     1.414000000    -5.239000000
H    -5.803000000     0.540000000    -6.319000000
O    -2.452000000     8.274000000     0.654000000
H    -2.398000000     7.324000000     0.758000000
H    -1.542000000     8.570000000     0.677000000
O    -2.714000000     8.435000000    -2.494000000
H    -3.238000000     7.672000000    -2.739000000
H    -2.877000000     8.547000000    -1.557000000
O    -5.830000000     3.253000000    -3.087000000
H    -6.398000000     3.793000000    -2.538000000
H    -5.115000000     2.992000000    -2.506000000
O    -8.667000000     1.843000000    -2.877000000
H    -8.012000000     2.096000000    -3.528000000
H    -8.710000000     0.889000000    -2.937000000
O    -7.041000000     5.221000000    -1.518000000
H    -6.918000000     6.081000000    -1.118000000
H    -7.759000000     4.827000000    -1.022000000
O    -3.992000000     3.039000000    -5.102000000
H    -3.182000000     3.182000000    -4.612000000
H    -4.686000000     3.124000000    -4.448000000
O    -0.729000000     4.943000000    -1.133000000
H    -1.193000000     4.880000000    -0.298000000
H    -1.322000000     4.541000000    -1.767000000
O    -5.589000000     6.396000000    -5.392000000
H    -5.106000000     7.218000000    -5.307000000
H    -5.534000000     6.182000000    -6.324000000
O    -3.864000000     5.888000000    -2.538000000
H    -4.589000000     5.603000000    -3.095000000
H    -3.417000000     5.078000000    -2.294000000
O    -2.412000000     5.450000000     1.258000000
H    -2.171000000     5.143000000     2.132000000
H    -3.218000000     4.977000000     1.051000000
