215
-1450.05127
C     0.380000000     2.551000000     4.942000000
H     1.426000000     2.847000000     4.904000000
C    -0.079000000     1.238000000     4.904000000
C    -1.465000000     0.955000000     4.919000000
H    -1.828000000    -0.065000000     4.824000000
C     0.813000000     0.073000000     4.376000000
O     2.220000000     0.282000000     4.602000000
H     0.554000000     0.079000000     3.307000000
O     0.387000000    -1.290000000     4.776000000
C     0.563000000    -2.418000000     3.912000000
C    -0.629000000    -2.961000000     3.460000000
H    -1.616000000    -2.602000000     3.740000000
C    -0.487000000    -3.890000000     2.419000000
O    -1.627000000    -4.404000000     1.923000000
C     0.777000000    -4.406000000     2.002000000
C     0.843000000    -5.451000000     0.879000000
H     1.744000000    -6.058000000     0.993000000
C     0.715000000    -4.990000000    -0.489000000
C     1.931000000    -4.628000000    -1.124000000
H     2.851000000    -4.703000000    -0.550000000
H     0.034000000    -6.151000000     1.097000000
C     1.924000000    -3.922000000     2.552000000
H     2.908000000    -4.232000000     2.209000000
C     1.827000000    -2.848000000     3.511000000
C     3.198000000    -2.264000000     4.017000000
H     3.992000000    -3.012000000     3.957000000
H     3.189000000    -1.972000000     5.069000000
C     3.576000000    -1.069000000     3.203000000
C     4.439000000    -1.190000000     2.154000000
H     4.934000000    -2.120000000     1.887000000
C     3.038000000     0.166000000     3.527000000
C     3.208000000     1.275000000     2.684000000
H     2.729000000     2.208000000     2.970000000
C     4.095000000     1.156000000     1.572000000
O     4.147000000     2.185000000     0.708000000
C     3.292000000     2.144000000    -0.448000000
C     2.616000000     3.509000000    -0.708000000
C     2.401000000     3.922000000    -2.044000000
H     2.887000000     3.473000000    -2.906000000
C     2.397000000     4.387000000     0.339000000
H     2.699000000     4.104000000     1.344000000
O     4.139000000     1.743000000    -1.621000000
H     2.516000000     1.379000000    -0.301000000
C     4.621000000    -0.086000000     1.306000000
C     5.400000000    -0.290000000     0.025000000
H     6.153000000    -1.068000000     0.170000000
H     6.056000000     0.536000000    -0.255000000
C     4.620000000    -0.579000000    -1.224000000
C     4.345000000    -1.943000000    -1.542000000
H     4.677000000    -2.735000000    -0.875000000
C     4.039000000     0.444000000    -2.027000000
C     3.294000000     0.148000000    -3.157000000
H     2.948000000     0.946000000    -3.808000000
C     3.051000000    -1.199000000    -3.478000000
O     2.149000000    -1.381000000    -4.447000000
C     0.743000000    -1.693000000    -4.091000000
C    -0.276000000    -0.780000000    -4.838000000
C     0.138000000     0.347000000    -5.580000000
H     1.195000000     0.543000000    -5.743000000
C    -1.661000000    -0.899000000    -4.532000000
H    -2.037000000    -1.737000000    -3.951000000
O     0.570000000    -3.145000000    -4.268000000
H     0.682000000    -1.582000000    -2.999000000
C     3.515000000    -2.265000000    -2.632000000
C     3.145000000    -3.681000000    -3.014000000
H     3.994000000    -4.343000000    -2.835000000
H     3.034000000    -3.821000000    -4.091000000
C     1.875000000    -4.112000000    -2.426000000
C     0.682000000    -3.907000000    -3.067000000
C    -0.484000000    -4.215000000    -2.429000000
H    -1.466000000    -3.942000000    -2.807000000
C    -0.498000000    -4.757000000    -1.125000000
O    -1.740000000    -4.785000000    -0.493000000
C    -2.044000000    -3.859000000     0.627000000
H    -1.424000000    -2.965000000     0.464000000
C    -3.446000000    -3.281000000     0.629000000
C    -3.997000000    -2.774000000     1.831000000
H    -3.405000000    -2.681000000     2.738000000
C    -4.167000000    -3.504000000    -0.559000000
H    -3.740000000    -4.043000000    -1.400000000
C    -5.481000000    -2.931000000    -0.616000000
O    -6.227000000    -3.129000000    -1.805000000
C    -6.047000000    -2.494000000     0.561000000
H    -7.098000000    -2.226000000     0.632000000
C    -5.363000000    -2.452000000     1.808000000
O    -6.004000000    -2.161000000     3.009000000
C    -5.399000000    -1.580000000     4.099000000
C    -4.890000000    -0.276000000     4.042000000
H    -4.877000000     0.242000000     3.087000000
C    -5.374000000    -2.226000000     5.256000000
H    -5.728000000    -3.244000000     5.399000000
C    -4.797000000    -1.685000000     6.387000000
H    -4.803000000    -2.305000000     7.279000000
C    -4.289000000    -0.376000000     6.319000000
H    -4.010000000     0.131000000     7.238000000
C    -4.353000000     0.381000000     5.134000000
O    -3.765000000     1.615000000     5.087000000
C    -2.404000000     1.971000000     5.106000000
C    -1.960000000     3.289000000     5.199000000
H    -2.632000000     4.142000000     5.262000000
C    -0.605000000     3.593000000     5.153000000
O    -0.208000000     4.855000000     5.430000000
C     0.837000000     5.387000000     4.708000000
C     0.549000000     5.576000000     3.358000000
H    -0.464000000     5.313000000     3.066000000
C     2.089000000     5.412000000     5.185000000
H     2.259000000     5.149000000     6.226000000
C     3.124000000     5.927000000     4.354000000
H     4.149000000     6.095000000     4.676000000
C     2.838000000     6.245000000     3.011000000
H     3.583000000     6.694000000     2.359000000
C     1.530000000     6.082000000     2.486000000
O     1.264000000     6.293000000     1.177000000
C     1.740000000     5.580000000     0.087000000
C     1.289000000     5.854000000    -1.203000000
H     0.648000000     6.730000000    -1.270000000
C     1.703000000     5.079000000    -2.282000000
O     1.585000000     5.629000000    -3.519000000
C     1.630000000     4.914000000    -4.718000000
C     0.819000000     3.850000000    -4.985000000
H     0.200000000     3.441000000    -4.190000000
C     2.538000000     5.305000000    -5.666000000
H     3.296000000     6.077000000    -5.564000000
C     2.627000000     4.562000000    -6.868000000
H     3.426000000     4.834000000    -7.553000000
C     1.619000000     3.717000000    -7.214000000
H     1.567000000     3.390000000    -8.249000000
C     0.727000000     3.289000000    -6.266000000
O    -0.350000000     2.500000000    -6.655000000
C    -0.764000000     1.351000000    -5.997000000
C    -2.081000000     1.202000000    -5.627000000
H    -2.764000000     1.999000000    -5.910000000
C    -2.502000000     0.116000000    -4.939000000
O    -3.856000000     0.166000000    -4.502000000
C    -4.706000000    -0.944000000    -4.316000000
C    -5.156000000    -1.555000000    -5.491000000
H    -4.621000000    -1.233000000    -6.381000000
C    -6.138000000    -2.501000000    -5.377000000
H    -6.489000000    -3.090000000    -6.221000000
C    -6.483000000    -2.988000000    -4.115000000
H    -7.254000000    -3.753000000    -4.070000000
C    -5.999000000    -2.427000000    -2.992000000
C    -5.105000000    -1.401000000    -3.045000000
H    -4.718000000    -0.948000000    -2.135000000
C    -1.235000000     1.224000000    -1.878000000
H    -1.033000000     1.784000000    -2.788000000
C    -0.113000000     0.559000000    -1.441000000
H     0.777000000     0.498000000    -2.063000000
C    -0.220000000    -0.209000000    -0.280000000
H     0.619000000    -0.931000000    -0.067000000
C    -1.464000000    -0.286000000     0.313000000
H    -1.552000000    -0.923000000     1.189000000
C    -2.575000000     0.504000000    -0.094000000
H    -3.496000000     0.472000000     0.481000000
C    -2.420000000     1.249000000    -1.238000000
C    -3.474000000     2.167000000    -1.737000000
O    -4.479000000     2.322000000    -1.060000000
O    -3.341000000     2.922000000    -2.669000000
O    -2.431000000     4.416000000    -4.614000000
H    -1.976000000     3.770000000    -5.155000000
H    -2.798000000     3.907000000    -3.891000000
O    -8.729000000    -0.799000000    -0.594000000
H    -8.064000000    -0.162000000    -0.854000000
H    -9.409000000    -0.721000000    -1.262000000
O    -6.850000000     4.994000000     1.720000000
H    -6.045000000     4.609000000     1.374000000
H    -7.466000000     4.961000000     0.988000000
O    -6.496000000     2.220000000     2.470000000
H    -5.616000000     2.353000000     2.118000000
H    -6.997000000     2.972000000     2.152000000
O    -0.272000000     2.695000000     1.561000000
H    -0.868000000     3.388000000     1.276000000
H    -0.703000000     1.884000000     1.293000000
O    -8.533000000     3.198000000    -0.592000000
H    -8.829000000     2.930000000     0.278000000
H    -8.046000000     2.443000000    -0.922000000
O    -4.602000000     3.760000000     1.062000000
H    -4.796000000     3.248000000     0.277000000
H    -3.716000000     4.093000000     0.919000000
O    -1.505000000     8.329000000    -3.338000000
H    -1.461000000     7.499000000    -2.865000000
H    -1.917000000     8.107000000    -4.173000000
O    -3.773000000     8.040000000    -1.770000000
H    -3.173000000     8.137000000    -2.510000000
H    -4.641000000     8.185000000    -2.144000000
O    -3.103000000     7.476000000     0.987000000
H    -2.503000000     8.209000000     1.125000000
H    -3.471000000     7.630000000     0.117000000
O    -6.844000000     1.088000000    -1.490000000
H    -6.725000000     1.021000000    -2.438000000
H    -5.997000000     1.393000000    -1.164000000
O    -2.225000000     6.933000000    -5.733000000
H    -3.088000000     6.592000000    -5.969000000
H    -1.905000000     6.331000000    -5.062000000
O    -8.872000000    -0.507000000    -5.080000000
H    -9.299000000    -0.397000000    -4.230000000
H    -7.990000000    -0.160000000    -4.952000000
O    -8.197000000     5.048000000    -2.555000000
H    -7.271000000     4.905000000    -2.749000000
H    -8.482000000     4.236000000    -2.135000000
O    -6.874000000     1.432000000    -4.303000000
H    -6.088000000     1.291000000    -4.831000000
H    -7.466000000     1.916000000    -4.879000000
O    -2.053000000     5.735000000    -2.155000000
H    -2.378000000     5.297000000    -2.942000000
H    -2.819000000     5.807000000    -1.587000000
O    -5.317000000     6.490000000    -4.817000000
H    -5.424000000     7.290000000    -4.303000000
H    -5.364000000     5.783000000    -4.172000000
O    -5.547000000     4.334000000    -2.666000000
H    -6.110000000     3.561000000    -2.623000000
H    -4.656000000     3.984000000    -2.642000000
O    -1.907000000     5.086000000     0.758000000
H    -2.102000000     6.011000000     0.913000000
H    -1.712000000     5.036000000    -0.178000000
