215
-1449.91131
C    -1.664000000     2.700000000     4.394000000
H    -0.697000000     3.027000000     4.769000000
C    -1.775000000     1.322000000     4.154000000
C    -3.056000000     0.837000000     3.827000000
H    -3.149000000    -0.195000000     3.501000000
C    -0.552000000     0.396000000     4.047000000
O     0.643000000     0.893000000     4.772000000
H    -0.267000000     0.310000000     2.989000000
O    -0.858000000    -0.970000000     4.610000000
C    -0.501000000    -2.137000000     3.954000000
C    -1.451000000    -2.876000000     3.241000000
H    -2.507000000    -2.619000000     3.235000000
C    -1.001000000    -3.883000000     2.357000000
O    -1.935000000    -4.349000000     1.478000000
C     0.362000000    -4.210000000     2.358000000
C     0.867000000    -5.274000000     1.389000000
H     1.723000000    -5.887000000     1.679000000
C     1.226000000    -4.654000000     0.071000000
C     2.564000000    -4.205000000    -0.183000000
H     3.321000000    -4.194000000     0.597000000
H     0.130000000    -6.054000000     1.184000000
C     1.271000000    -3.562000000     3.141000000
H     2.309000000    -3.826000000     2.954000000
C     0.879000000    -2.509000000     3.934000000
C     1.922000000    -1.729000000     4.715000000
H     2.797000000    -2.346000000     4.927000000
H     1.527000000    -1.507000000     5.709000000
C     2.441000000    -0.448000000     4.035000000
C     3.614000000    -0.563000000     3.291000000
H     4.107000000    -1.523000000     3.166000000
C     1.827000000     0.803000000     4.107000000
C     2.212000000     1.921000000     3.437000000
H     1.683000000     2.861000000     3.576000000
C     3.345000000     1.829000000     2.635000000
O     3.768000000     2.849000000     1.859000000
C     3.306000000     2.754000000     0.476000000
C     2.596000000     4.071000000     0.077000000
C     2.595000000     4.425000000    -1.276000000
H     3.190000000     3.794000000    -1.933000000
C     1.874000000     4.875000000     0.947000000
H     1.863000000     4.636000000     2.007000000
O     4.493000000     2.397000000    -0.307000000
H     2.569000000     1.959000000     0.290000000
C     4.037000000     0.564000000     2.594000000
C     5.288000000     0.516000000     1.728000000
H     6.064000000    -0.180000000     2.054000000
H     5.887000000     1.429000000     1.711000000
C     4.959000000     0.148000000     0.308000000
C     4.725000000    -1.172000000    -0.003000000
H     4.752000000    -1.840000000     0.854000000
C     4.639000000     1.114000000    -0.670000000
C     4.195000000     0.689000000    -1.942000000
H     3.836000000     1.486000000    -2.589000000
C     4.055000000    -0.669000000    -2.257000000
O     3.523000000    -0.941000000    -3.469000000
C     2.140000000    -1.298000000    -3.485000000
C     1.253000000    -0.779000000    -4.606000000
C     1.749000000     0.392000000    -5.103000000
H     2.700000000     0.789000000    -4.758000000
C     0.011000000    -1.341000000    -4.896000000
H    -0.245000000    -2.275000000    -4.402000000
O     2.065000000    -2.759000000    -3.552000000
H     1.713000000    -0.874000000    -2.564000000
C     4.313000000    -1.630000000    -1.267000000
C     4.245000000    -3.084000000    -1.541000000
H     4.982000000    -3.676000000    -0.994000000
H     4.506000000    -3.396000000    -2.555000000
C     2.821000000    -3.578000000    -1.382000000
C     1.856000000    -3.463000000    -2.381000000
C     0.635000000    -4.065000000    -2.144000000
H    -0.087000000    -4.033000000    -2.955000000
C     0.298000000    -4.600000000    -0.932000000
O    -1.007000000    -4.911000000    -0.593000000
C    -1.834000000    -3.954000000     0.091000000
H    -1.456000000    -2.923000000     0.025000000
C    -3.301000000    -3.793000000    -0.320000000
C    -4.338000000    -3.504000000     0.550000000
H    -4.180000000    -3.414000000     1.622000000
C    -3.638000000    -3.731000000    -1.659000000
H    -2.805000000    -3.856000000    -2.347000000
C    -4.906000000    -3.583000000    -2.191000000
O    -5.202000000    -3.551000000    -3.551000000
C    -5.930000000    -3.406000000    -1.247000000
H    -6.942000000    -3.342000000    -1.638000000
C    -5.614000000    -3.324000000     0.081000000
O    -6.630000000    -3.038000000     1.035000000
C    -6.336000000    -2.384000000     2.275000000
C    -5.981000000    -1.045000000     2.178000000
H    -6.088000000    -0.592000000     1.196000000
C    -6.398000000    -2.980000000     3.532000000
H    -6.734000000    -4.003000000     3.677000000
C    -6.042000000    -2.245000000     4.621000000
H    -6.043000000    -2.733000000     5.593000000
C    -5.674000000    -0.893000000     4.514000000
H    -5.425000000    -0.342000000     5.417000000
C    -5.620000000    -0.269000000     3.271000000
O    -5.333000000     1.076000000     3.176000000
C    -4.169000000     1.622000000     3.676000000
C    -4.047000000     3.041000000     3.932000000
H    -4.902000000     3.711000000     3.889000000
C    -2.764000000     3.568000000     4.274000000
O    -2.656000000     4.923000000     4.337000000
C    -1.467000000     5.541000000     4.115000000
C    -1.133000000     5.907000000     2.837000000
H    -1.799000000     5.827000000     1.982000000
C    -0.615000000     5.823000000     5.200000000
H    -0.941000000     5.480000000     6.178000000
C     0.636000000     6.443000000     5.009000000
H     1.287000000     6.752000000     5.823000000
C     0.994000000     6.870000000     3.732000000
H     1.911000000     7.394000000     3.473000000
C     0.124000000     6.497000000     2.644000000
O     0.436000000     6.840000000     1.357000000
C     1.216000000     6.019000000     0.491000000
C     1.211000000     6.342000000    -0.854000000
H     0.608000000     7.181000000    -1.191000000
C     1.940000000     5.568000000    -1.737000000
O     1.793000000     5.716000000    -3.102000000
C     2.328000000     4.894000000    -4.094000000
C     1.517000000     4.095000000    -4.864000000
H     0.439000000     4.025000000    -4.741000000
C     3.683000000     4.942000000    -4.310000000
H     4.287000000     5.646000000    -3.744000000
C     4.237000000     4.074000000    -5.254000000
H     5.322000000     4.009000000    -5.289000000
C     3.425000000     3.223000000    -5.963000000
H     3.804000000     2.508000000    -6.689000000
C     2.066000000     3.275000000    -5.854000000
O     1.333000000     2.333000000    -6.464000000
C     0.948000000     1.102000000    -5.978000000
C    -0.306000000     0.548000000    -6.335000000
H    -0.889000000     1.121000000    -7.051000000
C    -0.828000000    -0.646000000    -5.781000000
O    -2.218000000    -0.882000000    -5.931000000
C    -2.622000000    -2.116000000    -5.686000000
C    -2.250000000    -3.233000000    -6.461000000
H    -1.447000000    -3.201000000    -7.193000000
C    -2.861000000    -4.438000000    -6.205000000
H    -2.591000000    -5.314000000    -6.789000000
C    -3.902000000    -4.553000000    -5.241000000
H    -4.560000000    -5.401000000    -5.070000000
C    -4.270000000    -3.424000000    -4.550000000
C    -3.595000000    -2.192000000    -4.735000000
H    -3.734000000    -1.382000000    -4.024000000
C    -0.370000000     1.512000000    -2.340000000
H     0.044000000     2.179000000    -3.091000000
C     0.473000000     0.875000000    -1.417000000
H     1.525000000     1.112000000    -1.555000000
C    -0.029000000    -0.064000000    -0.471000000
H     0.679000000    -0.582000000     0.201000000
C    -1.431000000    -0.185000000    -0.320000000
H    -1.934000000    -0.885000000     0.341000000
C    -2.259000000     0.515000000    -1.177000000
H    -3.322000000     0.317000000    -1.067000000
C    -1.801000000     1.351000000    -2.167000000
C    -2.803000000     1.872000000    -3.136000000
O    -3.976000000     1.785000000    -2.874000000
O    -2.319000000     2.465000000    -4.041000000
O    -3.584000000     1.171000000    -8.766000000
H    -3.707000000     1.401000000    -7.845000000
H    -4.416000000     1.398000000    -9.183000000
O    -8.873000000     3.032000000    -3.736000000
H    -8.192000000     2.728000000    -4.336000000
H    -9.173000000     2.239000000    -3.292000000
O    -3.862000000     6.144000000    -5.448000000
H    -3.669000000     5.945000000    -4.532000000
H    -4.070000000     7.079000000    -5.451000000
O    -3.367000000     5.183000000    -0.392000000
H    -2.705000000     4.507000000    -0.243000000
H    -3.258000000     5.790000000     0.340000000
O    -1.491000000     3.782000000    -8.985000000
H    -2.201000000     3.405000000    -9.506000000
H    -1.936000000     4.284000000    -8.303000000
O    -1.737000000     3.143000000     0.461000000
H    -1.298000000     2.485000000    -0.078000000
H    -2.568000000     2.737000000     0.707000000
O    -2.721000000     5.059000000    -3.002000000
H    -2.918000000     5.047000000    -2.065000000
H    -2.656000000     4.135000000    -3.244000000
O    -6.342000000     5.728000000    -1.693000000
H    -5.556000000     5.332000000    -1.317000000
H    -7.063000000     5.196000000    -1.356000000
O    -8.115000000     0.211000000    -5.828000000
H    -8.277000000    -0.558000000    -5.282000000
H    -7.519000000     0.752000000    -5.309000000
O    -7.367000000     1.311000000    -0.588000000
H    -8.082000000     0.776000000    -0.245000000
H    -7.791000000     2.114000000    -0.889000000
O    -1.854000000     4.360000000    -6.109000000
H    -1.914000000     3.482000000    -5.732000000
H    -2.685000000     4.777000000    -5.880000000
O    -2.362000000     7.997000000    -2.813000000
H    -2.237000000     7.050000000    -2.869000000
H    -1.920000000     8.250000000    -2.003000000
O    -6.258000000     1.830000000    -4.452000000
H    -5.721000000     2.597000000    -4.255000000
H    -6.057000000     1.210000000    -3.750000000
O     0.122000000     6.549000000    -6.528000000
H    -0.446000000     5.801000000    -6.348000000
H    -0.130000000     7.204000000    -5.877000000
O    -5.893000000    -0.268000000    -2.664000000
H    -6.446000000     0.091000000    -1.970000000
H    -5.090000000     0.251000000    -2.624000000
O    -6.722000000     3.598000000     1.356000000
H    -6.348000000     4.423000000     1.664000000
H    -5.972000000     3.106000000     1.020000000
O    -3.809000000     1.502000000    -6.132000000
H    -3.275000000     1.770000000    -5.384000000
H    -4.374000000     0.811000000    -5.788000000
O    -4.945000000     2.477000000    -0.492000000
H    -4.308000000     2.310000000    -1.186000000
H    -5.724000000     1.990000000    -0.759000000
O    -5.413000000     3.758000000    -6.993000000
H    -4.955000000     3.032000000    -6.568000000
H    -4.717000000     4.271000000    -7.405000000
