215
-1437.72862
C    -0.904000000     2.172000000     4.653000000
H     0.149000000     2.436000000     4.594000000
C    -1.436000000     0.862000000     4.490000000
C    -2.860000000     0.666000000     4.640000000
H    -3.240000000    -0.351000000     4.621000000
C    -0.534000000    -0.334000000     4.155000000
O     0.749000000    -0.137000000     4.680000000
H    -0.486000000    -0.522000000     3.072000000
O    -0.975000000    -1.566000000     4.731000000
C    -0.834000000    -2.636000000     3.898000000
C    -1.944000000    -2.981000000     3.138000000
H    -2.896000000    -2.480000000     3.294000000
C    -1.858000000    -3.890000000     2.081000000
O    -2.961000000    -4.056000000     1.312000000
C    -0.601000000    -4.574000000     1.893000000
C    -0.422000000    -5.522000000     0.748000000
H     0.336000000    -6.272000000     0.982000000
C    -0.011000000    -4.804000000    -0.513000000
C     1.350000000    -4.557000000    -0.708000000
H     2.041000000    -4.972000000     0.021000000
H    -1.394000000    -6.000000000     0.608000000
C     0.494000000    -4.295000000     2.702000000
H     1.444000000    -4.760000000     2.453000000
C     0.437000000    -3.245000000     3.680000000
C     1.675000000    -2.857000000     4.505000000
H     2.331000000    -3.730000000     4.547000000
H     1.264000000    -2.566000000     5.474000000
C     2.320000000    -1.671000000     3.800000000
C     3.529000000    -1.860000000     3.067000000
H     3.945000000    -2.860000000     2.978000000
C     1.861000000    -0.387000000     3.922000000
C     2.470000000     0.653000000     3.294000000
H     2.061000000     1.646000000     3.459000000
C     3.641000000     0.470000000     2.530000000
O     4.256000000     1.542000000     1.881000000
C     3.963000000     1.754000000     0.471000000
C     3.596000000     3.207000000     0.117000000
C     3.657000000     3.649000000    -1.170000000
H     4.180000000     3.055000000    -1.916000000
C     3.036000000     4.001000000     1.128000000
H     2.784000000     3.548000000     2.084000000
O     5.033000000     1.172000000    -0.335000000
H     3.062000000     1.151000000     0.285000000
C     4.167000000    -0.849000000     2.449000000
C     5.330000000    -1.106000000     1.504000000
H     5.942000000    -1.980000000     1.733000000
H     6.026000000    -0.269000000     1.419000000
C     4.757000000    -1.231000000     0.111000000
C     4.180000000    -2.373000000    -0.367000000
H     4.072000000    -3.254000000     0.261000000
C     4.887000000    -0.105000000    -0.726000000
C     4.397000000    -0.216000000    -2.064000000
H     4.500000000     0.693000000    -2.651000000
C     3.846000000    -1.385000000    -2.554000000
O     3.052000000    -1.294000000    -3.666000000
C     1.611000000    -1.338000000    -3.613000000
C     1.088000000    -0.318000000    -4.634000000
C     1.906000000     0.702000000    -5.137000000
H     2.911000000     0.859000000    -4.754000000
C    -0.199000000    -0.507000000    -5.095000000
H    -0.917000000    -1.196000000    -4.657000000
O     1.132000000    -2.647000000    -3.833000000
H     1.174000000    -1.035000000    -2.650000000
C     3.749000000    -2.488000000    -1.667000000
C     3.183000000    -3.829000000    -2.166000000
H     3.613000000    -4.737000000    -1.739000000
H     3.402000000    -4.002000000    -3.221000000
C     1.732000000    -3.848000000    -1.825000000
C     0.794000000    -3.508000000    -2.798000000
C    -0.535000000    -3.653000000    -2.544000000
H    -1.303000000    -3.275000000    -3.214000000
C    -0.950000000    -4.316000000    -1.405000000
O    -2.230000000    -4.380000000    -0.950000000
C    -2.778000000    -3.411000000    -0.017000000
H    -2.022000000    -2.626000000     0.135000000
C    -4.039000000    -2.675000000    -0.487000000
C    -4.892000000    -2.065000000     0.482000000
H    -4.729000000    -2.313000000     1.528000000
C    -4.258000000    -2.341000000    -1.839000000
H    -3.645000000    -2.727000000    -2.649000000
C    -5.291000000    -1.497000000    -2.281000000
O    -5.635000000    -1.184000000    -3.592000000
C    -6.167000000    -1.018000000    -1.303000000
H    -7.001000000    -0.401000000    -1.627000000
C    -5.993000000    -1.282000000     0.094000000
O    -6.794000000    -0.611000000     1.010000000
C    -6.523000000    -0.582000000     2.437000000
C    -5.718000000     0.354000000     3.111000000
H    -5.137000000     1.070000000     2.535000000
C    -7.447000000    -1.288000000     3.172000000
H    -8.184000000    -1.809000000     2.566000000
C    -7.462000000    -1.174000000     4.626000000
H    -8.218000000    -1.666000000     5.232000000
C    -6.706000000    -0.214000000     5.230000000
H    -6.779000000    -0.094000000     6.308000000
C    -5.826000000     0.572000000     4.489000000
O    -5.063000000     1.540000000     5.051000000
C    -3.725000000     1.720000000     4.782000000
C    -3.156000000     2.996000000     4.979000000
H    -3.906000000     3.719000000     5.289000000
C    -1.805000000     3.238000000     4.954000000
O    -1.373000000     4.552000000     5.109000000
C    -0.133000000     5.047000000     4.739000000
C     0.255000000     5.253000000     3.418000000
H    -0.362000000     4.871000000     2.609000000
C     0.756000000     5.467000000     5.770000000
H     0.593000000     5.326000000     6.835000000
C     1.973000000     6.087000000     5.358000000
H     2.714000000     6.465000000     6.058000000
C     2.368000000     6.143000000     4.022000000
H     3.315000000     6.599000000     3.746000000
C     1.531000000     5.727000000     3.043000000
O     1.772000000     5.951000000     1.692000000
C     2.478000000     5.193000000     0.785000000
C     2.639000000     5.718000000    -0.489000000
H     2.239000000     6.711000000    -0.680000000
C     3.187000000     4.918000000    -1.464000000
O     3.056000000     5.318000000    -2.780000000
C     3.590000000     4.567000000    -3.800000000
C     2.647000000     4.033000000    -4.638000000
H     1.578000000     4.110000000    -4.457000000
C     4.970000000     4.519000000    -4.056000000
H     5.691000000     4.973000000    -3.382000000
C     5.380000000     3.764000000    -5.170000000
H     6.421000000     3.598000000    -5.434000000
C     4.405000000     3.195000000    -6.004000000
H     4.699000000     2.616000000    -6.876000000
C     3.064000000     3.263000000    -5.702000000
O     2.115000000     2.624000000    -6.533000000
C     1.397000000     1.536000000    -6.117000000
C     0.053000000     1.400000000    -6.591000000
H    -0.402000000     2.080000000    -7.307000000
C    -0.724000000     0.368000000    -6.027000000
O    -2.085000000     0.397000000    -6.329000000
C    -3.040000000    -0.510000000    -6.033000000
C    -2.967000000    -1.765000000    -6.759000000
H    -2.196000000    -1.751000000    -7.525000000
C    -3.898000000    -2.777000000    -6.476000000
H    -3.821000000    -3.697000000    -7.049000000
C    -4.738000000    -2.635000000    -5.406000000
H    -5.396000000    -3.463000000    -5.156000000
C    -4.793000000    -1.390000000    -4.686000000
C    -3.906000000    -0.397000000    -4.926000000
H    -3.827000000     0.545000000    -4.389000000
C    -1.735000000     1.689000000    -2.349000000
H    -1.780000000     2.354000000    -3.207000000
C    -0.568000000     1.036000000    -1.840000000
H     0.338000000     1.071000000    -2.440000000
C    -0.617000000     0.267000000    -0.634000000
H     0.280000000    -0.228000000    -0.346000000
C    -1.819000000     0.113000000     0.035000000
H    -1.955000000    -0.500000000     0.922000000
C    -2.963000000     0.833000000    -0.405000000
H    -3.923000000     0.702000000     0.088000000
C    -2.894000000     1.655000000    -1.593000000
C    -4.118000000     2.524000000    -1.953000000
O    -5.107000000     2.485000000    -1.317000000
O    -4.041000000     3.267000000    -2.936000000
O    -8.305000000     3.990000000    -5.345000000
H    -7.496000000     3.511000000    -5.166000000
H    -8.891000000     3.336000000    -5.726000000
O    -0.941000000     6.997000000    -1.221000000
H    -1.414000000     6.503000000    -1.891000000
H    -1.293000000     6.673000000    -0.391000000
O    -1.261000000     3.332000000     0.277000000
H    -0.486000000     2.771000000     0.307000000
H    -1.891000000     2.843000000    -0.251000000
O    -9.191000000    -0.346000000    -0.271000000
H    -8.283000000    -0.161000000    -0.034000000
H    -9.218000000    -1.295000000    -0.395000000
O    -5.366000000     6.780000000    -5.516000000
H    -6.264000000     7.105000000    -5.452000000
H    -4.898000000     7.228000000    -4.812000000
O    -8.869000000     0.745000000    -4.032000000
H    -8.307000000     0.184000000    -4.566000000
H    -8.291000000     1.083000000    -3.348000000
O    -2.569000000     5.395000000    -2.664000000
H    -3.017000000     4.628000000    -3.020000000
H    -3.103000000     5.657000000    -1.914000000
O    -4.307000000     7.087000000    -0.811000000
H    -3.522000000     6.825000000    -0.331000000
H    -4.870000000     7.489000000    -0.149000000
O    -9.530000000     3.166000000     0.429000000
H    -9.547000000     4.097000000     0.209000000
H    -8.869000000     2.794000000    -0.155000000
O    -7.779000000     5.757000000    -0.037000000
H    -7.415000000     5.374000000    -0.835000000
H    -8.172000000     6.581000000    -0.324000000
O    -0.119000000     6.267000000    -3.903000000
H    -0.919000000     5.800000000    -3.660000000
H     0.090000000     6.799000000    -3.135000000
O    -4.649000000     1.405000000    -7.811000000
H    -4.469000000     1.765000000    -6.943000000
H    -3.792000000     1.369000000    -8.237000000
O    -6.096000000     5.502000000    -2.267000000
H    -5.550000000     4.724000000    -2.371000000
H    -5.482000000     6.195000000    -2.024000000
O    -8.180000000     7.494000000    -2.774000000
H    -7.446000000     6.893000000    -2.647000000
H    -8.402000000     7.409000000    -3.701000000
O    -7.593000000     2.962000000    -1.732000000
H    -7.646000000     3.494000000    -2.526000000
H    -6.655000000     2.843000000    -1.585000000
O    -1.483000000     5.317000000    -6.865000000
H    -1.040000000     6.108000000    -6.560000000
H    -1.464000000     4.726000000    -6.113000000
O    -2.474000000     5.780000000     0.690000000
H    -1.904000000     5.071000000     0.988000000
H    -3.358000000     5.416000000     0.744000000
O    -5.125000000     3.224000000    -5.379000000
H    -4.795000000     3.771000000    -6.092000000
H    -4.602000000     3.481000000    -4.619000000
O    -4.752000000     4.228000000     0.759000000
H    -5.086000000     3.651000000     0.073000000
H    -5.072000000     3.841000000     1.574000000
