215
-1453.53758
C    -1.358000000     2.797000000     4.188000000
H    -0.354000000     3.186000000     4.040000000
C    -1.660000000     1.433000000     4.202000000
C    -3.011000000     0.994000000     4.248000000
H    -3.412000000    -0.012000000     4.340000000
C    -0.646000000     0.381000000     4.087000000
O     0.502000000     0.783000000     4.816000000
H    -0.461000000     0.265000000     3.009000000
O    -1.082000000    -0.836000000     4.713000000
C    -0.705000000    -1.971000000     4.134000000
C    -1.627000000    -2.586000000     3.262000000
H    -2.606000000    -2.136000000     3.120000000
C    -1.282000000    -3.588000000     2.421000000
O    -2.239000000    -4.039000000     1.539000000
C     0.045000000    -4.019000000     2.483000000
C     0.512000000    -5.214000000     1.573000000
H     1.371000000    -5.707000000     2.033000000
C     0.903000000    -4.756000000     0.250000000
C     2.254000000    -4.441000000     0.022000000
H     2.977000000    -4.533000000     0.828000000
H    -0.279000000    -5.966000000     1.542000000
C     0.975000000    -3.501000000     3.309000000
H     1.975000000    -3.928000000     3.288000000
C     0.665000000    -2.440000000     4.169000000
C     1.755000000    -1.835000000     5.047000000
H     2.488000000    -2.607000000     5.289000000
H     1.238000000    -1.458000000     5.932000000
C     2.383000000    -0.623000000     4.260000000
C     3.680000000    -0.732000000     3.569000000
H     4.126000000    -1.723000000     3.580000000
C     1.709000000     0.613000000     4.200000000
C     2.222000000     1.643000000     3.458000000
H     1.841000000     2.660000000     3.470000000
C     3.439000000     1.527000000     2.821000000
O     3.817000000     2.589000000     2.012000000
C     3.242000000     2.450000000     0.651000000
C     2.621000000     3.694000000     0.117000000
C     2.258000000     3.707000000    -1.254000000
H     2.444000000     2.804000000    -1.829000000
C     2.201000000     4.731000000     0.946000000
H     2.388000000     4.650000000     2.014000000
O     4.395000000     2.007000000    -0.167000000
H     2.553000000     1.599000000     0.752000000
C     4.098000000     0.308000000     2.761000000
C     5.311000000     0.018000000     1.934000000
H     5.873000000    -0.815000000     2.361000000
H     6.024000000     0.844000000     1.983000000
C     4.961000000    -0.283000000     0.414000000
C     4.753000000    -1.639000000     0.088000000
H     4.844000000    -2.470000000     0.783000000
C     4.632000000     0.709000000    -0.528000000
C     4.276000000     0.304000000    -1.819000000
H     4.001000000     1.082000000    -2.527000000
C     4.061000000    -1.038000000    -2.127000000
O     3.464000000    -1.339000000    -3.387000000
C     2.071000000    -1.682000000    -3.405000000
C     1.510000000    -1.164000000    -4.722000000
C     1.800000000     0.109000000    -5.155000000
H     2.641000000     0.702000000    -4.806000000
C     0.378000000    -1.777000000    -5.250000000
H    -0.018000000    -2.666000000    -4.766000000
O     1.903000000    -3.084000000    -3.323000000
H     1.676000000    -1.118000000    -2.548000000
C     4.380000000    -2.003000000    -1.207000000
C     4.034000000    -3.463000000    -1.410000000
H     4.579000000    -4.135000000    -0.744000000
H     4.458000000    -3.764000000    -2.370000000
C     2.648000000    -3.906000000    -1.188000000
C     1.636000000    -3.664000000    -2.176000000
C     0.338000000    -4.059000000    -1.927000000
H    -0.436000000    -3.808000000    -2.648000000
C    -0.037000000    -4.563000000    -0.747000000
O    -1.404000000    -4.748000000    -0.559000000
C    -2.058000000    -3.651000000     0.171000000
H    -1.370000000    -2.793000000     0.158000000
C    -3.332000000    -3.134000000    -0.458000000
C    -4.213000000    -2.268000000     0.317000000
H    -3.935000000    -2.004000000     1.334000000
C    -3.706000000    -3.523000000    -1.708000000
H    -3.132000000    -4.207000000    -2.327000000
C    -4.781000000    -2.856000000    -2.353000000
O    -4.989000000    -3.120000000    -3.661000000
C    -5.566000000    -1.896000000    -1.676000000
H    -6.309000000    -1.305000000    -2.206000000
C    -5.302000000    -1.692000000    -0.329000000
O    -6.118000000    -0.862000000     0.384000000
C    -6.171000000    -0.732000000     1.808000000
C    -5.881000000     0.492000000     2.428000000
H    -5.639000000     1.409000000     1.897000000
C    -6.451000000    -1.905000000     2.517000000
H    -6.618000000    -2.901000000     2.113000000
C    -6.542000000    -1.823000000     3.916000000
H    -6.912000000    -2.659000000     4.504000000
C    -6.228000000    -0.600000000     4.584000000
H    -6.304000000    -0.485000000     5.662000000
C    -5.910000000     0.521000000     3.819000000
O    -5.350000000     1.616000000     4.456000000
C    -4.027000000     1.925000000     4.360000000
C    -3.729000000     3.261000000     4.187000000
H    -4.536000000     3.977000000     4.323000000
C    -2.409000000     3.676000000     4.186000000
O    -2.243000000     5.077000000     4.350000000
C    -1.033000000     5.733000000     4.010000000
C    -0.696000000     6.044000000     2.725000000
H    -1.412000000     6.066000000     1.906000000
C    -0.237000000     6.133000000     5.079000000
H    -0.532000000     5.896000000     6.098000000
C     0.980000000     6.737000000     4.887000000
H     1.691000000     7.052000000     5.647000000
C     1.414000000     6.910000000     3.607000000
H     2.446000000     7.230000000     3.489000000
C     0.602000000     6.576000000     2.533000000
O     1.027000000     6.781000000     1.255000000
C     1.495000000     5.808000000     0.415000000
C     1.230000000     5.899000000    -0.967000000
H     0.786000000     6.812000000    -1.357000000
C     1.642000000     4.850000000    -1.794000000
O     1.180000000     4.755000000    -3.117000000
C     1.996000000     4.237000000    -4.054000000
C     1.410000000     3.327000000    -4.862000000
H     0.377000000     3.023000000    -4.712000000
C     3.195000000     4.720000000    -4.405000000
H     3.580000000     5.547000000    -3.814000000
C     3.948000000     4.261000000    -5.512000000
H     4.798000000     4.823000000    -5.891000000
C     3.310000000     3.301000000    -6.321000000
H     3.720000000     3.090000000    -7.305000000
C     2.046000000     2.878000000    -6.019000000
O     1.458000000     1.917000000    -6.768000000
C     1.154000000     0.678000000    -6.237000000
C     0.033000000     0.046000000    -6.729000000
H    -0.547000000     0.598000000    -7.464000000
C    -0.396000000    -1.184000000    -6.259000000
O    -1.658000000    -1.643000000    -6.598000000
C    -2.262000000    -2.671000000    -5.929000000
C    -2.024000000    -3.946000000    -6.438000000
H    -1.184000000    -4.154000000    -7.096000000
C    -2.853000000    -4.986000000    -6.000000000
H    -2.827000000    -5.963000000    -6.477000000
C    -3.788000000    -4.753000000    -4.978000000
H    -4.418000000    -5.556000000    -4.602000000
C    -3.969000000    -3.460000000    -4.509000000
C    -3.193000000    -2.373000000    -4.987000000
H    -3.442000000    -1.373000000    -4.640000000
C    -0.470000000     1.444000000    -2.092000000
H    -0.098000000     2.088000000    -2.884000000
C     0.356000000     0.668000000    -1.245000000
H     1.418000000     0.729000000    -1.470000000
C    -0.160000000    -0.025000000    -0.161000000
H     0.485000000    -0.610000000     0.556000000
C    -1.518000000     0.095000000     0.143000000
H    -1.932000000    -0.358000000     1.041000000
C    -2.348000000     0.880000000    -0.671000000
H    -3.374000000     1.053000000    -0.355000000
C    -1.889000000     1.586000000    -1.782000000
C    -2.840000000     2.571000000    -2.540000000
O    -4.032000000     2.480000000    -2.432000000
O    -2.340000000     3.322000000    -3.392000000
O    -7.352000000     6.589000000    -3.132000000
H    -6.562000000     6.661000000    -2.596000000
H    -7.296000000     5.718000000    -3.525000000
O    -7.446000000     3.637000000    -3.682000000
H    -6.634000000     3.205000000    -3.417000000
H    -7.886000000     2.997000000    -4.242000000
O    -2.776000000     7.297000000     0.134000000
H    -2.329000000     8.137000000     0.234000000
H    -2.393000000     6.913000000    -0.655000000
O    -1.063000000     4.611000000    -8.564000000
H    -0.891000000     4.705000000    -7.627000000
H    -0.872000000     5.474000000    -8.930000000
O    -1.270000000     4.065000000    -0.156000000
H    -0.897000000     4.755000000    -0.704000000
H    -0.869000000     3.259000000    -0.481000000
O    -4.907000000     4.301000000    -6.846000000
H    -4.497000000     5.037000000    -6.393000000
H    -4.768000000     3.554000000    -6.265000000
O    -8.809000000     0.128000000    -4.603000000
H    -8.826000000    -0.709000000    -5.066000000
H    -7.983000000     0.118000000    -4.119000000
O    -4.916000000     5.169000000    -2.151000000
H    -4.947000000     5.671000000    -1.336000000
H    -4.809000000     4.261000000    -1.869000000
O    -5.304000000     6.838000000    -0.070000000
H    -4.471000000     7.143000000     0.290000000
H    -5.960000000     7.138000000     0.559000000
O    -3.444000000     0.599000000    -7.447000000
H    -3.108000000    -0.215000000    -7.072000000
H    -4.059000000     0.929000000    -6.792000000
O    -7.484000000     2.358000000     0.056000000
H    -8.096000000     2.993000000    -0.316000000
H    -6.845000000     2.890000000     0.530000000
O    -1.771000000     4.789000000    -5.468000000
H    -1.883000000     4.217000000    -4.708000000
H    -1.404000000     5.596000000    -5.108000000
O    -1.770000000     6.355000000    -2.211000000
H    -1.226000000     6.686000000    -2.926000000
H    -2.355000000     5.722000000    -2.628000000
O    -1.100000000     7.474000000    -4.756000000
H    -0.200000000     7.788000000    -4.667000000
H    -1.518000000     8.108000000    -5.339000000
O    -6.391000000     1.280000000    -2.649000000
H    -6.616000000     1.712000000    -1.825000000
H    -5.454000000     1.442000000    -2.757000000
O    -6.128000000     4.339000000     1.927000000
H    -5.972000000     5.148000000     2.415000000
H    -5.291000000     4.150000000     1.503000000
O    -4.453000000     2.083000000    -5.106000000
H    -5.062000000     1.755000000    -4.445000000
H    -3.714000000     2.424000000    -4.603000000
O    -3.851000000     4.226000000     0.775000000
H    -3.317000000     3.434000000     0.726000000
H    -3.320000000     4.899000000     0.349000000
O    -4.116000000     6.190000000    -4.761000000
H    -4.400000000     5.804000000    -3.932000000
H    -3.228000000     5.858000000    -4.889000000
