215
-1415.90718
C     0.164000000     3.052000000     4.099000000
H     1.086000000     3.295000000     3.577000000
C     0.148000000     1.777000000     4.599000000
C    -0.837000000     1.301000000     5.478000000
H    -0.975000000     0.246000000     5.703000000
C     1.255000000     0.822000000     4.182000000
O     2.522000000     1.481000000     3.902000000
H     0.967000000     0.432000000     3.195000000
O     1.377000000    -0.310000000     5.066000000
C     1.452000000    -1.501000000     4.393000000
C     0.332000000    -2.240000000     4.114000000
H    -0.479000000    -1.918000000     4.762000000
C     0.204000000    -3.273000000     3.271000000
O    -1.063000000    -3.791000000     2.969000000
C     1.380000000    -3.695000000     2.657000000
C     1.279000000    -4.972000000     1.832000000
H     2.126000000    -5.657000000     1.908000000
C     1.016000000    -4.560000000     0.414000000
C     2.130000000    -4.271000000    -0.433000000
H     3.110000000    -4.152000000     0.023000000
H     0.482000000    -5.622000000     2.200000000
C     2.529000000    -3.002000000     2.887000000
H     3.456000000    -3.276000000     2.392000000
C     2.621000000    -1.954000000     3.738000000
C     3.925000000    -1.190000000     3.795000000
H     4.766000000    -1.827000000     3.512000000
H     4.153000000    -0.785000000     4.783000000
C     3.982000000    -0.143000000     2.747000000
C     4.687000000    -0.474000000     1.559000000
H     5.075000000    -1.488000000     1.503000000
C     3.306000000     1.059000000     2.822000000
C     3.448000000     2.004000000     1.835000000
H     2.853000000     2.887000000     2.054000000
C     4.137000000     1.725000000     0.661000000
O     4.133000000     2.669000000    -0.316000000
C     3.143000000     2.384000000    -1.333000000
C     2.282000000     3.602000000    -1.643000000
C     1.599000000     3.651000000    -2.840000000
H     1.589000000     2.767000000    -3.473000000
C     2.208000000     4.725000000    -0.781000000
H     2.734000000     4.722000000     0.170000000
O     3.821000000     1.854000000    -2.550000000
H     2.471000000     1.610000000    -0.934000000
C     4.754000000     0.471000000     0.513000000
C     5.501000000     0.190000000    -0.759000000
H     6.272000000    -0.580000000    -0.682000000
H     6.036000000     1.082000000    -1.091000000
C     4.637000000    -0.314000000    -1.877000000
C     4.435000000    -1.704000000    -1.871000000
H     4.947000000    -2.192000000    -1.045000000
C     3.946000000     0.507000000    -2.770000000
C     2.995000000    -0.067000000    -3.566000000
H     2.461000000     0.593000000    -4.245000000
C     2.792000000    -1.433000000    -3.593000000
O     1.771000000    -1.835000000    -4.380000000
C     0.559000000    -1.998000000    -3.651000000
C    -0.661000000    -1.415000000    -4.415000000
C    -0.399000000    -0.592000000    -5.548000000
H     0.632000000    -0.295000000    -5.726000000
C    -1.942000000    -1.822000000    -4.199000000
H    -2.112000000    -2.456000000    -3.333000000
O     0.360000000    -3.394000000    -3.510000000
H     0.690000000    -1.650000000    -2.616000000
C     3.532000000    -2.229000000    -2.731000000
C     3.191000000    -3.737000000    -2.527000000
H     4.111000000    -4.184000000    -2.146000000
H     3.009000000    -4.101000000    -3.541000000
C     1.919000000    -3.927000000    -1.757000000
C     0.619000000    -3.898000000    -2.323000000
C    -0.430000000    -4.184000000    -1.493000000
H    -1.433000000    -4.301000000    -1.895000000
C    -0.257000000    -4.404000000    -0.162000000
O    -1.348000000    -4.500000000     0.698000000
C    -1.584000000    -3.478000000     1.688000000
H    -1.064000000    -2.575000000     1.334000000
C    -3.148000000    -3.116000000     1.600000000
C    -3.648000000    -2.285000000     2.607000000
H    -3.042000000    -2.002000000     3.464000000
C    -3.990000000    -3.571000000     0.556000000
H    -3.531000000    -4.118000000    -0.264000000
C    -5.212000000    -3.058000000     0.421000000
O    -6.064000000    -3.298000000    -0.673000000
C    -5.741000000    -2.193000000     1.360000000
H    -6.709000000    -1.708000000     1.268000000
C    -4.941000000    -1.785000000     2.476000000
O    -5.455000000    -0.754000000     3.244000000
C    -5.059000000    -0.474000000     4.479000000
C    -4.279000000     0.664000000     4.748000000
H    -4.030000000     1.430000000     4.018000000
C    -5.372000000    -1.415000000     5.406000000
H    -5.798000000    -2.382000000     5.151000000
C    -4.796000000    -1.250000000     6.764000000
H    -5.007000000    -1.985000000     7.537000000
C    -3.963000000    -0.178000000     7.054000000
H    -3.597000000     0.012000000     8.060000000
C    -3.752000000     0.794000000     6.074000000
O    -3.028000000     1.900000000     6.373000000
C    -1.907000000     2.169000000     5.689000000
C    -1.913000000     3.467000000     5.195000000
H    -2.721000000     4.175000000     5.364000000
C    -0.796000000     3.966000000     4.495000000
O    -0.755000000     5.277000000     4.051000000
C     0.276000000     5.855000000     3.292000000
C     0.153000000     5.933000000     1.944000000
H    -0.752000000     5.629000000     1.424000000
C     1.485000000     6.283000000     3.933000000
H     1.681000000     6.307000000     5.002000000
C     2.560000000     6.767000000     3.256000000
H     3.484000000     7.064000000     3.747000000
C     2.362000000     6.883000000     1.832000000
H     3.142000000     7.390000000     1.270000000
C     1.169000000     6.505000000     1.212000000
O     1.031000000     6.711000000    -0.176000000
C     1.267000000     5.703000000    -1.082000000
C     0.530000000     5.759000000    -2.269000000
H    -0.267000000     6.463000000    -2.495000000
C     0.671000000     4.646000000    -3.083000000
O    -0.084000000     4.608000000    -4.257000000
C     0.276000000     3.839000000    -5.373000000
C    -0.541000000     2.753000000    -5.739000000
H    -1.442000000     2.518000000    -5.178000000
C     1.351000000     4.192000000    -6.216000000
H     1.892000000     5.111000000    -6.006000000
C     1.670000000     3.404000000    -7.326000000
H     2.511000000     3.745000000    -7.924000000
C     0.828000000     2.351000000    -7.665000000
H     1.095000000     1.673000000    -8.472000000
C    -0.215000000     1.977000000    -6.910000000
O    -0.986000000     0.899000000    -7.189000000
C    -1.389000000    -0.025000000    -6.276000000
C    -2.703000000    -0.384000000    -6.026000000
H    -3.574000000    -0.062000000    -6.590000000
C    -2.994000000    -1.322000000    -5.028000000
O    -4.313000000    -1.621000000    -4.718000000
C    -4.695000000    -2.673000000    -3.957000000
C    -4.595000000    -3.922000000    -4.468000000
H    -4.281000000    -3.903000000    -5.509000000
C    -5.017000000    -4.978000000    -3.737000000
H    -4.890000000    -6.010000000    -4.053000000
C    -5.513000000    -4.864000000    -2.390000000
H    -5.808000000    -5.705000000    -1.768000000
C    -5.537000000    -3.501000000    -1.878000000
C    -5.073000000    -2.392000000    -2.650000000
H    -5.076000000    -1.379000000    -2.256000000
C    -1.159000000     1.222000000    -2.450000000
H    -0.892000000     1.780000000    -3.344000000
C    -0.120000000     0.653000000    -1.717000000
H     0.914000000     0.661000000    -2.054000000
C    -0.376000000    -0.052000000    -0.538000000
H     0.409000000    -0.636000000     0.007000000
C    -1.688000000    -0.156000000    -0.158000000
H    -1.877000000    -0.536000000     0.843000000
C    -2.724000000     0.431000000    -0.867000000
H    -3.746000000     0.442000000    -0.498000000
C    -2.480000000     1.140000000    -2.053000000
C    -3.548000000     1.828000000    -2.898000000
O    -4.698000000     1.863000000    -2.411000000
O    -3.181000000     2.695000000    -3.671000000
O    -7.671000000    -0.875000000    -4.855000000
H    -7.062000000    -0.866000000    -5.593000000
H    -8.035000000    -1.760000000    -4.855000000
O    -9.161000000     3.761000000    -4.639000000
H    -8.310000000     3.332000000    -4.547000000
H    -9.788000000     3.040000000    -4.684000000
O    -1.430000000     3.378000000     0.235000000
H    -1.482000000     3.695000000    -0.667000000
H    -0.888000000     2.591000000     0.181000000
O    -3.273000000     4.230000000    -5.868000000
H    -3.985000000     4.705000000    -5.440000000
H    -3.022000000     3.555000000    -5.236000000
O    -7.741000000     1.536000000    -6.998000000
H    -7.511000000     0.811000000    -6.416000000
H    -8.644000000     1.354000000    -7.261000000
O    -1.556000000     6.479000000    -6.691000000
H    -2.497000000     6.622000000    -6.793000000
H    -1.492000000     5.698000000    -6.140000000
O    -5.161000000     4.352000000    -0.274000000
H    -4.852000000     5.238000000    -0.462000000
H    -4.759000000     3.810000000    -0.953000000
O    -6.236000000     0.571000000    -0.918000000
H    -5.502000000     0.966000000    -1.388000000
H    -6.274000000     1.048000000    -0.088000000
O    -8.312000000    -0.770000000    -1.942000000
H    -7.640000000    -0.178000000    -1.606000000
H    -8.192000000    -0.753000000    -2.892000000
O    -5.286000000     2.077000000     1.166000000
H    -4.422000000     2.165000000     1.569000000
H    -5.390000000     2.874000000     0.647000000
O    -5.216000000     4.804000000    -3.745000000
H    -4.909000000     4.039000000    -3.259000000
H    -4.677000000     5.526000000    -3.422000000
O    -2.316000000     4.488000000    -1.963000000
H    -2.358000000     5.305000000    -2.460000000
H    -2.635000000     3.821000000    -2.571000000
O    -5.301000000     1.618000000    -8.551000000
H    -5.996000000     1.748000000    -7.906000000
H    -4.665000000     2.308000000    -8.360000000
O    -3.702000000     7.045000000    -3.185000000
H    -3.477000000     7.889000000    -3.575000000
H    -4.219000000     7.269000000    -2.411000000
O    -7.147000000     1.934000000    -3.517000000
H    -7.191000000     1.115000000    -4.011000000
H    -6.215000000     2.053000000    -3.333000000
O    -7.142000000     6.700000000    -3.428000000
H    -6.511000000     5.984000000    -3.502000000
H    -6.919000000     7.132000000    -2.603000000
O    -4.307000000     4.720000000    -8.519000000
H    -4.345000000     5.671000000    -8.414000000
H    -3.861000000     4.409000000    -7.731000000
O    -7.726000000     3.261000000    -1.207000000
H    -6.948000000     3.065000000    -0.686000000
H    -7.518000000     2.933000000    -2.082000000
O    -3.058000000     3.187000000     2.277000000
H    -2.453000000     3.031000000     3.002000000
H    -2.493000000     3.403000000     1.536000000
