215
-1462.29778
C     0.790000000     2.750000000     4.414000000
H     1.576000000     3.307000000     3.910000000
C     0.738000000     1.357000000     4.623000000
C    -0.358000000     0.842000000     5.384000000
H    -0.489000000    -0.233000000     5.474000000
C     1.725000000     0.495000000     3.824000000
O     3.031000000     1.103000000     3.777000000
H     1.246000000     0.351000000     2.844000000
O     1.931000000    -0.773000000     4.459000000
C     1.987000000    -1.908000000     3.614000000
C     0.883000000    -2.709000000     3.573000000
H    -0.056000000    -2.470000000     4.065000000
C     0.953000000    -3.908000000     2.842000000
O    -0.304000000    -4.475000000     2.632000000
C     2.087000000    -4.227000000     2.059000000
C     1.925000000    -5.299000000     1.015000000
H     2.862000000    -5.849000000     0.898000000
C     1.398000000    -4.741000000    -0.288000000
C     2.272000000    -4.415000000    -1.289000000
H     3.342000000    -4.518000000    -1.131000000
H     1.192000000    -6.021000000     1.379000000
C     3.281000000    -3.504000000     2.296000000
H     4.156000000    -3.741000000     1.696000000
C     3.244000000    -2.360000000     3.091000000
C     4.437000000    -1.410000000     3.272000000
H     5.386000000    -1.939000000     3.159000000
H     4.526000000    -1.092000000     4.313000000
C     4.459000000    -0.226000000     2.314000000
C     5.077000000    -0.393000000     1.028000000
H     5.550000000    -1.351000000     0.827000000
C     3.732000000     0.929000000     2.605000000
C     3.760000000     1.961000000     1.672000000
H     3.180000000     2.850000000     1.907000000
C     4.314000000     1.836000000     0.436000000
O     3.992000000     2.840000000    -0.521000000
C     2.975000000     2.586000000    -1.530000000
C     2.047000000     3.733000000    -1.728000000
C     1.725000000     4.046000000    -3.029000000
H     2.179000000     3.481000000    -3.839000000
C     1.517000000     4.440000000    -0.603000000
H     1.801000000     4.191000000     0.416000000
O     3.775000000     2.186000000    -2.713000000
H     2.325000000     1.753000000    -1.224000000
C     4.914000000     0.588000000     0.077000000
C     5.428000000     0.341000000    -1.331000000
H     6.217000000    -0.409000000    -1.247000000
H     5.979000000     1.242000000    -1.611000000
C     4.419000000    -0.106000000    -2.333000000
C     4.077000000    -1.422000000    -2.482000000
H     4.653000000    -2.139000000    -1.903000000
C     3.688000000     0.880000000    -2.972000000
C     2.656000000     0.519000000    -3.806000000
H     2.084000000     1.323000000    -4.261000000
C     2.308000000    -0.827000000    -4.013000000
O     1.137000000    -1.097000000    -4.641000000
C     0.041000000    -1.387000000    -3.728000000
C    -1.284000000    -0.627000000    -4.048000000
C    -1.270000000     0.498000000    -4.868000000
H    -0.338000000     0.984000000    -5.145000000
C    -2.495000000    -1.095000000    -3.527000000
H    -2.484000000    -1.839000000    -2.735000000
O    -0.100000000    -2.826000000    -3.697000000
H     0.218000000    -1.005000000    -2.712000000
C     3.051000000    -1.815000000    -3.337000000
C     2.824000000    -3.293000000    -3.522000000
H     3.691000000    -3.910000000    -3.275000000
H     2.539000000    -3.491000000    -4.558000000
C     1.814000000    -3.841000000    -2.499000000
C     0.449000000    -3.555000000    -2.649000000
C    -0.438000000    -3.984000000    -1.681000000
H    -1.483000000    -3.691000000    -1.747000000
C     0.003000000    -4.544000000    -0.517000000
O    -0.869000000    -4.830000000     0.479000000
C    -1.110000000    -3.893000000     1.537000000
H    -0.694000000    -2.940000000     1.178000000
C    -2.592000000    -3.718000000     1.863000000
C    -3.097000000    -2.875000000     2.846000000
H    -2.390000000    -2.431000000     3.544000000
C    -3.558000000    -4.250000000     0.933000000
H    -3.329000000    -4.727000000    -0.016000000
C    -4.909000000    -3.973000000     1.058000000
O    -5.872000000    -4.370000000     0.121000000
C    -5.247000000    -3.097000000     2.068000000
H    -6.279000000    -2.799000000     2.231000000
C    -4.451000000    -2.486000000     2.962000000
O    -4.912000000    -1.552000000     3.849000000
C    -4.249000000    -1.247000000     5.069000000
C    -3.638000000    -0.071000000     5.261000000
H    -3.731000000     0.644000000     4.448000000
C    -4.130000000    -2.316000000     5.920000000
H    -4.516000000    -3.286000000     5.617000000
C    -3.543000000    -2.064000000     7.154000000
H    -3.539000000    -2.825000000     7.930000000
C    -2.966000000    -0.843000000     7.424000000
H    -2.452000000    -0.750000000     8.377000000
C    -3.039000000     0.154000000     6.464000000
O    -2.358000000     1.320000000     6.660000000
C    -1.273000000     1.696000000     5.889000000
C    -1.148000000     3.044000000     5.719000000
H    -1.840000000     3.757000000     6.160000000
C    -0.171000000     3.576000000     4.949000000
O    -0.097000000     4.981000000     4.875000000
C     0.498000000     5.602000000     3.826000000
C    -0.028000000     5.430000000     2.548000000
H    -0.897000000     4.795000000     2.396000000
C     1.530000000     6.514000000     4.082000000
H     1.847000000     6.679000000     5.109000000
C     1.954000000     7.315000000     2.988000000
H     2.680000000     8.094000000     3.204000000
C     1.522000000     7.060000000     1.653000000
H     1.805000000     7.784000000     0.893000000
C     0.498000000     6.144000000     1.467000000
O    -0.043000000     6.044000000     0.223000000
C     0.600000000     5.450000000    -0.825000000
C     0.275000000     5.716000000    -2.117000000
H    -0.514000000     6.442000000    -2.296000000
C     0.802000000     5.056000000    -3.212000000
O     0.528000000     5.408000000    -4.511000000
C    -0.027000000     4.714000000    -5.609000000
C    -1.047000000     3.755000000    -5.403000000
H    -1.462000000     3.648000000    -4.404000000
C     0.610000000     4.746000000    -6.860000000
H     1.396000000     5.474000000    -7.045000000
C     0.161000000     3.906000000    -7.912000000
H     0.556000000     4.104000000    -8.905000000
C    -0.857000000     3.013000000    -7.661000000
H    -1.322000000     2.467000000    -8.477000000
C    -1.433000000     2.904000000    -6.409000000
O    -2.443000000     1.957000000    -6.288000000
C    -2.451000000     1.045000000    -5.269000000
C    -3.698000000     0.558000000    -4.803000000
H    -4.580000000     1.060000000    -5.193000000
C    -3.705000000    -0.527000000    -3.917000000
O    -4.942000000    -0.999000000    -3.393000000
C    -5.058000000    -2.295000000    -2.906000000
C    -5.098000000    -3.300000000    -3.878000000
H    -4.950000000    -3.179000000    -4.948000000
C    -5.432000000    -4.559000000    -3.558000000
H    -5.551000000    -5.272000000    -4.370000000
C    -5.643000000    -4.989000000    -2.234000000
H    -5.870000000    -6.031000000    -2.024000000
C    -5.676000000    -4.029000000    -1.229000000
C    -5.465000000    -2.643000000    -1.601000000
H    -5.561000000    -1.883000000    -0.830000000
C    -1.658000000     1.321000000    -0.910000000
H    -1.855000000     1.999000000    -1.737000000
C    -0.443000000     0.617000000    -0.976000000
H     0.219000000     0.724000000    -1.831000000
C    -0.090000000    -0.219000000     0.116000000
H     0.868000000    -0.714000000     0.174000000
C    -0.924000000    -0.346000000     1.187000000
H    -0.636000000    -0.983000000     2.019000000
C    -2.212000000     0.267000000     1.216000000
H    -2.954000000     0.018000000     1.970000000
C    -2.532000000     1.159000000     0.146000000
C    -3.915000000     1.854000000     0.238000000
O    -4.600000000     1.728000000     1.273000000
O    -4.392000000     2.649000000    -0.608000000
O    -7.671000000    -1.202000000    -3.895000000
H    -6.881000000    -1.524000000    -3.460000000
H    -7.348000000    -0.751000000    -4.675000000
O    -6.470000000     6.650000000    -2.806000000
H    -6.654000000     6.125000000    -3.585000000
H    -6.474000000     7.554000000    -3.121000000
O    -6.894000000     3.284000000     0.296000000
H    -7.119000000     2.975000000     1.174000000
H    -5.979000000     3.030000000     0.180000000
O    -8.285000000     0.478000000    -1.407000000
H    -7.734000000     0.187000000    -0.680000000
H    -7.811000000     0.203000000    -2.192000000
O    -8.698000000     4.911000000     3.825000000
H    -8.450000000     4.249000000     3.180000000
H    -9.599000000     5.141000000     3.597000000
O    -2.851000000     3.517000000     2.617000000
H    -3.609000000     2.939000000     2.532000000
H    -2.690000000     3.833000000     1.728000000
O    -6.959000000     4.272000000    -4.709000000
H    -6.945000000     3.973000000    -5.618000000
H    -6.696000000     3.504000000    -4.201000000
O    -9.391000000     1.022000000     2.289000000
H    -8.732000000     1.125000000     1.602000000
H    -8.982000000     1.393000000     3.071000000
O    -3.857000000     7.835000000    -1.339000000
H    -3.208000000     8.210000000    -1.934000000
H    -3.845000000     6.897000000    -1.531000000
O    -6.541000000     0.130000000     0.710000000
H    -6.146000000     0.918000000     1.084000000
H    -5.915000000    -0.568000000     0.906000000
O    -4.659000000     2.829000000     5.398000000
H    -3.765000000     2.980000000     5.090000000
H    -5.096000000     3.673000000     5.286000000
O    -2.386000000     6.074000000    -3.804000000
H    -2.853000000     5.882000000    -4.617000000
H    -2.811000000     5.522000000    -3.148000000
O    -9.922000000     3.250000000    -1.421000000
H    -9.987000000     3.702000000    -0.579000000
H    -9.671000000     2.354000000    -1.193000000
O    -4.165000000     5.188000000    -1.638000000
H    -4.996000000     5.376000000    -2.075000000
H    -4.182000000     4.243000000    -1.488000000
O    -6.418000000     2.384000000    -2.830000000
H    -7.296000000     2.153000000    -2.526000000
H    -5.870000000     2.325000000    -2.048000000
O    -4.669000000     6.651000000     1.516000000
H    -5.602000000     6.590000000     1.310000000
H    -4.236000000     6.650000000     0.662000000
O    -3.287000000     5.902000000     3.715000000
H    -3.041000000     5.086000000     3.279000000
H    -3.926000000     6.305000000     3.127000000
O    -7.250000000     5.954000000    -0.046000000
H    -7.311000000     5.057000000     0.283000000
H    -7.289000000     5.862000000    -0.998000000
O    -6.814000000     2.700000000     3.009000000
H    -6.042000000     2.402000000     2.528000000
H    -6.642000000     2.450000000     3.917000000
