215
-1453.22957
C    -0.242000000     2.555000000     4.952000000
H     0.683000000     3.030000000     4.635000000
C    -0.534000000     1.171000000     4.945000000
C    -1.785000000     0.717000000     5.377000000
H    -2.029000000    -0.340000000     5.447000000
C     0.549000000     0.234000000     4.263000000
O     1.878000000     0.658000000     4.452000000
H     0.225000000     0.237000000     3.211000000
O     0.410000000    -1.091000000     4.820000000
C     0.535000000    -2.120000000     3.961000000
C    -0.597000000    -2.764000000     3.607000000
H    -1.564000000    -2.454000000     3.995000000
C    -0.475000000    -3.866000000     2.753000000
O    -1.694000000    -4.348000000     2.269000000
C     0.780000000    -4.290000000     2.282000000
C     0.821000000    -5.418000000     1.255000000
H     1.658000000    -6.119000000     1.272000000
C     0.791000000    -4.730000000    -0.119000000
C     2.008000000    -4.355000000    -0.785000000
H     2.901000000    -4.609000000    -0.219000000
H    -0.070000000    -6.015000000     1.462000000
C     1.900000000    -3.699000000     2.834000000
H     2.846000000    -4.137000000     2.527000000
C     1.807000000    -2.598000000     3.686000000
C     3.091000000    -1.871000000     4.104000000
H     3.906000000    -2.597000000     4.060000000
H     3.125000000    -1.621000000     5.166000000
C     3.497000000    -0.678000000     3.277000000
C     4.427000000    -0.843000000     2.226000000
H     4.778000000    -1.865000000     2.104000000
C     2.802000000     0.521000000     3.474000000
C     3.154000000     1.624000000     2.668000000
H     2.635000000     2.575000000     2.756000000
C     4.115000000     1.487000000     1.621000000
O     4.235000000     2.555000000     0.708000000
C     3.584000000     2.424000000    -0.602000000
C     2.750000000     3.638000000    -0.955000000
C     2.653000000     4.123000000    -2.250000000
H     3.241000000     3.627000000    -3.019000000
C     1.967000000     4.249000000    -0.011000000
H     1.932000000     3.901000000     1.019000000
O     4.433000000     1.960000000    -1.706000000
H     2.791000000     1.666000000    -0.509000000
C     4.629000000     0.223000000     1.391000000
C     5.560000000     0.020000000     0.198000000
H     6.275000000    -0.710000000     0.585000000
H     6.258000000     0.850000000     0.075000000
C     4.827000000    -0.399000000    -1.011000000
C     4.465000000    -1.722000000    -1.255000000
H     4.675000000    -2.463000000    -0.487000000
C     4.447000000     0.570000000    -1.933000000
C     3.792000000     0.206000000    -3.097000000
H     3.330000000     0.986000000    -3.697000000
C     3.456000000    -1.107000000    -3.380000000
O     2.597000000    -1.270000000    -4.406000000
C     1.177000000    -1.514000000    -3.991000000
C     0.228000000    -0.673000000    -4.902000000
C     0.580000000     0.469000000    -5.632000000
H     1.635000000     0.704000000    -5.742000000
C    -1.184000000    -0.932000000    -4.770000000
H    -1.513000000    -1.763000000    -4.152000000
O     0.753000000    -2.889000000    -3.930000000
H     0.972000000    -1.133000000    -2.980000000
C     3.795000000    -2.052000000    -2.447000000
C     3.382000000    -3.483000000    -2.658000000
H     4.159000000    -4.064000000    -2.157000000
H     3.239000000    -3.706000000    -3.717000000
C     2.058000000    -3.827000000    -2.086000000
C     0.804000000    -3.596000000    -2.704000000
C    -0.401000000    -3.880000000    -2.048000000
H    -1.387000000    -3.636000000    -2.436000000
C    -0.430000000    -4.509000000    -0.755000000
O    -1.657000000    -4.757000000    -0.078000000
C    -2.025000000    -3.835000000     0.959000000
H    -1.473000000    -2.900000000     0.780000000
C    -3.467000000    -3.459000000     0.894000000
C    -4.235000000    -2.943000000     1.949000000
H    -3.758000000    -2.785000000     2.912000000
C    -3.993000000    -3.220000000    -0.375000000
H    -3.483000000    -3.407000000    -1.317000000
C    -5.351000000    -2.911000000    -0.574000000
O    -5.887000000    -2.923000000    -1.850000000
C    -6.075000000    -2.430000000     0.502000000
H    -7.110000000    -2.122000000     0.382000000
C    -5.484000000    -2.407000000     1.767000000
O    -6.167000000    -1.886000000     2.789000000
C    -5.646000000    -1.556000000     3.989000000
C    -5.090000000    -0.342000000     4.261000000
H    -5.190000000     0.440000000     3.512000000
C    -5.659000000    -2.555000000     4.940000000
H    -6.148000000    -3.504000000     4.738000000
C    -5.300000000    -2.248000000     6.202000000
H    -5.436000000    -2.971000000     7.003000000
C    -4.684000000    -1.002000000     6.532000000
H    -4.442000000    -0.742000000     7.559000000
C    -4.579000000    -0.012000000     5.518000000
O    -4.151000000     1.237000000     5.804000000
C    -2.833000000     1.653000000     5.572000000
C    -2.595000000     2.991000000     5.537000000
H    -3.474000000     3.628000000     5.475000000
C    -1.294000000     3.444000000     5.230000000
O    -1.111000000     4.796000000     5.044000000
C    -0.118000000     5.276000000     4.211000000
C    -0.264000000     5.166000000     2.872000000
H    -1.194000000     4.866000000     2.397000000
C     0.935000000     5.945000000     4.783000000
H     1.038000000     5.987000000     5.864000000
C     1.950000000     6.485000000     3.992000000
H     2.872000000     6.926000000     4.364000000
C     1.806000000     6.454000000     2.585000000
H     2.604000000     6.937000000     2.027000000
C     0.701000000     5.827000000     2.026000000
O     0.347000000     5.899000000     0.627000000
C     1.056000000     5.262000000    -0.341000000
C     0.960000000     5.702000000    -1.651000000
H     0.192000000     6.413000000    -1.946000000
C     1.746000000     5.142000000    -2.627000000
O     1.609000000     5.678000000    -3.852000000
C     1.831000000     4.902000000    -4.962000000
C     0.901000000     3.913000000    -5.276000000
H     0.121000000     3.714000000    -4.545000000
C     2.771000000     5.286000000    -5.903000000
H     3.314000000     6.220000000    -5.785000000
C     2.789000000     4.681000000    -7.203000000
H     3.512000000     5.021000000    -7.941000000
C     1.780000000     3.765000000    -7.551000000
H     1.785000000     3.301000000    -8.534000000
C     0.861000000     3.376000000    -6.587000000
O    -0.111000000     2.494000000    -6.889000000
C    -0.368000000     1.300000000    -6.277000000
C    -1.734000000     1.006000000    -6.105000000
H    -2.543000000     1.579000000    -6.550000000
C    -2.096000000    -0.118000000    -5.349000000
O    -3.441000000    -0.461000000    -5.219000000
C    -3.933000000    -1.627000000    -4.727000000
C    -3.699000000    -2.866000000    -5.393000000
H    -3.136000000    -2.771000000    -6.317000000
C    -4.127000000    -4.074000000    -4.840000000
H    -3.919000000    -5.067000000    -5.230000000
C    -4.827000000    -3.999000000    -3.655000000
H    -5.272000000    -4.937000000    -3.335000000
C    -5.267000000    -2.793000000    -3.099000000
C    -4.760000000    -1.631000000    -3.594000000
H    -4.984000000    -0.713000000    -3.058000000
C    -1.277000000     1.323000000    -1.976000000
H    -1.292000000     2.018000000    -2.812000000
C    -0.123000000     0.756000000    -1.547000000
H     0.821000000     1.065000000    -1.988000000
C    -0.094000000    -0.181000000    -0.483000000
H     0.852000000    -0.696000000    -0.143000000
C    -1.250000000    -0.406000000     0.179000000
H    -1.284000000    -0.984000000     1.099000000
C    -2.476000000     0.137000000    -0.220000000
H    -3.394000000    -0.150000000     0.287000000
C    -2.500000000     0.993000000    -1.285000000
C    -3.797000000     1.597000000    -1.736000000
O    -4.860000000     1.203000000    -1.240000000
O    -3.767000000     2.661000000    -2.370000000
O    -5.281000000     2.246000000     1.274000000
H    -4.751000000     3.022000000     1.093000000
H    -5.199000000     1.710000000     0.485000000
O    -9.545000000     0.946000000    -3.086000000
H    -9.102000000     0.725000000    -2.267000000
H    -8.857000000     1.317000000    -3.639000000
O    -2.938000000     7.094000000     1.957000000
H    -3.760000000     6.679000000     1.694000000
H    -2.654000000     7.576000000     1.181000000
O    -3.689000000     7.736000000    -0.855000000
H    -3.449000000     8.418000000    -1.482000000
H    -4.633000000     7.842000000    -0.735000000
O    -5.301000000     4.286000000    -6.329000000
H    -6.024000000     4.790000000    -5.954000000
H    -5.127000000     3.601000000    -5.683000000
O    -7.695000000     1.049000000     1.639000000
H    -6.904000000     1.578000000     1.539000000
H    -8.378000000     1.553000000     1.197000000
O    -2.636000000     6.681000000    -3.404000000
H    -2.663000000     6.613000000    -2.450000000
H    -2.164000000     7.497000000    -3.572000000
O    -4.422000000     4.794000000     0.574000000
H    -3.569000000     4.542000000     0.220000000
H    -4.687000000     5.548000000     0.047000000
O    -8.075000000     2.152000000    -5.153000000
H    -8.259000000     1.552000000    -5.876000000
H    -7.120000000     2.190000000    -5.109000000
O    -7.423000000     0.611000000    -1.083000000
H    -6.479000000     0.684000000    -1.224000000
H    -7.509000000     0.367000000    -0.162000000
O    -2.933000000     4.181000000    -4.351000000
H    -2.912000000     5.047000000    -3.945000000
H    -3.009000000     3.574000000    -3.615000000
O    -2.757000000     5.155000000    -6.960000000
H    -3.695000000     5.248000000    -7.123000000
H    -2.701000000     4.586000000    -6.192000000
O    -8.418000000     4.825000000     1.292000000
H    -8.926000000     4.025000000     1.157000000
H    -7.908000000     4.654000000     2.084000000
O    -8.923000000     5.049000000    -2.222000000
H    -8.917000000     5.612000000    -1.448000000
H    -8.126000000     4.525000000    -2.143000000
O    -5.497000000     6.384000000    -3.855000000
H    -5.732000000     6.001000000    -3.010000000
H    -4.542000000     6.445000000    -3.833000000
O    -5.407000000     2.332000000    -4.669000000
H    -4.788000000     1.836000000    -5.205000000
H    -4.971000000     2.423000000    -3.822000000
O    -2.137000000     4.134000000    -0.763000000
H    -1.261000000     3.773000000    -0.627000000
H    -2.571000000     3.501000000    -1.335000000
O    -6.503000000     3.575000000    -1.940000000
H    -5.678000000     3.269000000    -1.564000000
H    -7.107000000     2.841000000    -1.822000000
O    -6.648000000     3.943000000     3.283000000
H    -6.084000000     4.400000000     3.906000000
H    -6.060000000     3.680000000     2.575000000
