215
-1477.63008
C     0.610000000     2.569000000     4.221000000
H     1.410000000     2.935000000     3.583000000
C     0.625000000     1.252000000     4.552000000
C    -0.281000000     0.740000000     5.466000000
H    -0.265000000    -0.320000000     5.709000000
C     1.594000000     0.283000000     3.790000000
O     2.827000000     1.004000000     3.517000000
H     1.169000000    -0.096000000     2.849000000
O     1.879000000    -0.804000000     4.636000000
C     1.797000000    -1.996000000     3.907000000
C     0.588000000    -2.666000000     3.790000000
H    -0.233000000    -2.403000000     4.452000000
C     0.464000000    -3.759000000     2.939000000
O    -0.803000000    -4.271000000     2.743000000
C     1.530000000    -4.129000000     2.113000000
C     1.378000000    -5.246000000     1.098000000
H     2.324000000    -5.790000000     1.065000000
C     0.980000000    -4.759000000    -0.288000000
C     1.933000000    -4.505000000    -1.324000000
H     2.978000000    -4.722000000    -1.120000000
H     0.753000000    -6.070000000     1.448000000
C     2.726000000    -3.417000000     2.236000000
H     3.605000000    -3.692000000     1.660000000
C     2.853000000    -2.376000000     3.128000000
C     4.165000000    -1.585000000     3.171000000
H     4.986000000    -2.248000000     2.888000000
H     4.314000000    -1.234000000     4.194000000
C     4.078000000    -0.435000000     2.102000000
C     4.642000000    -0.669000000     0.845000000
H     4.964000000    -1.671000000     0.575000000
C     3.534000000     0.776000000     2.370000000
C     3.652000000     1.823000000     1.489000000
H     3.375000000     2.808000000     1.853000000
C     4.319000000     1.693000000     0.275000000
O     4.214000000     2.707000000    -0.648000000
C     3.169000000     2.502000000    -1.766000000
C     2.444000000     3.801000000    -2.014000000
C     2.004000000     4.168000000    -3.221000000
H     2.190000000     3.496000000    -4.055000000
C     2.174000000     4.623000000    -0.893000000
H     2.409000000     4.337000000     0.129000000
O     3.952000000     1.965000000    -2.907000000
H     2.499000000     1.692000000    -1.442000000
C     4.826000000     0.407000000    -0.028000000
C     5.443000000     0.063000000    -1.385000000
H     6.213000000    -0.691000000    -1.206000000
H     6.084000000     0.857000000    -1.774000000
C     4.385000000    -0.304000000    -2.396000000
C     4.111000000    -1.680000000    -2.537000000
H     4.603000000    -2.403000000    -1.891000000
C     3.740000000     0.639000000    -3.121000000
C     2.720000000     0.290000000    -3.993000000
H     2.175000000     1.062000000    -4.530000000
C     2.295000000    -1.037000000    -4.070000000
O     1.157000000    -1.390000000    -4.771000000
C    -0.033000000    -1.644000000    -4.012000000
C    -1.193000000    -0.808000000    -4.474000000
C    -1.019000000     0.343000000    -5.242000000
H    -0.024000000     0.565000000    -5.618000000
C    -2.435000000    -1.142000000    -4.006000000
H    -2.542000000    -2.014000000    -3.367000000
O    -0.358000000    -3.029000000    -3.881000000
H     0.124000000    -1.218000000    -3.010000000
C     3.033000000    -2.054000000    -3.350000000
C     2.625000000    -3.563000000    -3.465000000
H     3.421000000    -4.301000000    -3.348000000
H     2.317000000    -3.729000000    -4.499000000
C     1.537000000    -3.966000000    -2.555000000
C     0.151000000    -3.783000000    -2.809000000
C    -0.791000000    -3.956000000    -1.768000000
H    -1.751000000    -3.469000000    -1.921000000
C    -0.369000000    -4.502000000    -0.552000000
O    -1.340000000    -4.713000000     0.342000000
C    -1.498000000    -3.817000000     1.561000000
H    -0.924000000    -2.893000000     1.396000000
C    -2.954000000    -3.572000000     1.868000000
C    -3.347000000    -3.012000000     3.137000000
H    -2.682000000    -3.199000000     3.977000000
C    -3.947000000    -3.686000000     0.886000000
H    -3.654000000    -4.066000000    -0.090000000
C    -5.189000000    -3.118000000     1.065000000
O    -6.091000000    -3.299000000     0.046000000
C    -5.575000000    -2.525000000     2.276000000
H    -6.612000000    -2.255000000     2.461000000
C    -4.633000000    -2.393000000     3.278000000
O    -5.036000000    -1.943000000     4.530000000
C    -4.264000000    -1.675000000     5.669000000
C    -3.490000000    -0.487000000     5.670000000
H    -3.503000000     0.213000000     4.839000000
C    -4.439000000    -2.384000000     6.827000000
H    -5.140000000    -3.215000000     6.815000000
C    -3.721000000    -2.078000000     8.028000000
H    -3.811000000    -2.639000000     8.955000000
C    -2.766000000    -1.033000000     7.957000000
H    -2.122000000    -0.802000000     8.802000000
C    -2.847000000    -0.196000000     6.837000000
O    -2.162000000     1.030000000     6.903000000
C    -1.367000000     1.504000000     5.896000000
C    -1.401000000     2.873000000     5.465000000
H    -2.252000000     3.440000000     5.833000000
C    -0.458000000     3.407000000     4.626000000
O    -0.587000000     4.708000000     4.200000000
C     0.445000000     5.386000000     3.538000000
C     0.431000000     5.504000000     2.165000000
H    -0.427000000     5.091000000     1.640000000
C     1.435000000     6.017000000     4.230000000
H     1.521000000     5.974000000     5.313000000
C     2.387000000     6.789000000     3.559000000
H     3.086000000     7.403000000     4.121000000
C     2.325000000     6.968000000     2.168000000
H     3.084000000     7.602000000     1.715000000
C     1.313000000     6.304000000     1.501000000
O     1.057000000     6.611000000     0.132000000
C     1.431000000     5.858000000    -0.991000000
C     0.974000000     6.234000000    -2.282000000
H     0.308000000     7.063000000    -2.505000000
C     1.256000000     5.378000000    -3.390000000
O     0.714000000     5.830000000    -4.525000000
C     0.346000000     4.951000000    -5.579000000
C    -0.753000000     4.083000000    -5.442000000
H    -1.294000000     4.166000000    -4.502000000
C     1.031000000     4.972000000    -6.785000000
H     1.784000000     5.741000000    -6.939000000
C     0.730000000     4.094000000    -7.789000000
H     1.309000000     4.064000000    -8.708000000
C    -0.205000000     3.041000000    -7.631000000
H    -0.308000000     2.280000000    -8.400000000
C    -0.999000000     3.091000000    -6.456000000
O    -2.114000000     2.296000000    -6.221000000
C    -2.133000000     1.124000000    -5.482000000
C    -3.412000000     0.771000000    -5.021000000
H    -4.235000000     1.428000000    -5.290000000
C    -3.562000000    -0.395000000    -4.329000000
O    -4.800000000    -0.685000000    -3.785000000
C    -5.125000000    -1.882000000    -3.166000000
C    -5.167000000    -3.023000000    -3.971000000
H    -4.908000000    -3.007000000    -5.027000000
C    -5.527000000    -4.245000000    -3.429000000
H    -5.429000000    -5.073000000    -4.127000000
C    -5.774000000    -4.345000000    -2.035000000
H    -5.897000000    -5.348000000    -1.635000000
C    -5.811000000    -3.165000000    -1.254000000
C    -5.569000000    -1.919000000    -1.805000000
H    -5.681000000    -1.008000000    -1.222000000
C    -1.493000000     1.584000000    -1.505000000
H    -1.600000000     2.161000000    -2.420000000
C    -0.295000000     0.891000000    -1.360000000
H     0.533000000     1.048000000    -2.046000000
C    -0.150000000     0.020000000    -0.260000000
H     0.750000000    -0.602000000    -0.224000000
C    -1.253000000    -0.086000000     0.671000000
H    -1.055000000    -0.820000000     1.448000000
C    -2.484000000     0.466000000     0.442000000
H    -3.354000000     0.147000000     1.010000000
C    -2.638000000     1.297000000    -0.711000000
C    -3.989000000     1.891000000    -1.033000000
O    -4.953000000     1.855000000    -0.262000000
O    -4.163000000     2.321000000    -2.150000000
O    -5.206000000     4.619000000    -1.325000000
H    -4.807000000     3.829000000    -1.688000000
H    -4.806000000     5.337000000    -1.816000000
O    -7.941000000     3.022000000    -0.836000000
H    -8.223000000     3.492000000    -0.051000000
H    -6.993000000     2.930000000    -0.733000000
O    -4.670000000     2.222000000     2.311000000
H    -4.671000000     2.132000000     1.358000000
H    -4.232000000     3.058000000     2.472000000
O    -6.403000000     3.585000000    -5.731000000
H    -5.843000000     3.378000000    -6.479000000
H    -6.502000000     2.753000000    -5.269000000
O    -8.722000000     4.063000000    -3.950000000
H    -8.461000000     3.712000000    -3.098000000
H    -7.912000000     4.083000000    -4.459000000
O    -9.232000000     0.479000000     2.473000000
H    -8.375000000     0.573000000     2.056000000
H    -9.427000000     1.350000000     2.819000000
O    -8.549000000    -1.400000000    -0.548000000
H    -8.998000000    -1.901000000     0.132000000
H    -7.678000000    -1.234000000    -0.188000000
O    -2.575000000     7.528000000    -0.977000000
H    -2.666000000     7.412000000    -1.923000000
H    -2.866000000     8.426000000    -0.817000000
O    -3.047000000     5.397000000     0.622000000
H    -2.566000000     6.088000000     0.168000000
H    -3.724000000     5.128000000     0.001000000
O    -7.212000000    -0.301000000    -4.885000000
H    -7.109000000     0.216000000    -4.086000000
H    -6.316000000    -0.473000000    -5.176000000
O    -6.673000000     0.465000000     1.363000000
H    -6.097000000     0.847000000     0.701000000
H    -6.283000000     0.726000000     2.198000000
O    -6.525000000     2.054000000     4.305000000
H    -5.944000000     2.015000000     3.545000000
H    -6.148000000     2.738000000     4.859000000
O    -2.542000000     6.727000000    -3.552000000
H    -2.458000000     7.112000000    -4.424000000
H    -3.041000000     5.923000000    -3.692000000
O   -10.393000000     1.929000000    -1.852000000
H    -9.549000000     2.008000000    -1.407000000
H   -10.444000000     1.008000000    -2.107000000
O    -4.204000000     4.413000000    -4.106000000
H    -5.035000000     4.447000000    -4.581000000
H    -4.058000000     3.481000000    -3.945000000
O    -6.683000000     1.878000000    -3.204000000
H    -7.216000000     1.977000000    -2.415000000
H    -5.780000000     1.953000000    -2.895000000
O    -6.702000000     5.877000000     3.430000000
H    -6.808000000     5.183000000     2.779000000
H    -6.714000000     6.687000000     2.921000000
O    -3.201000000     4.330000000     2.988000000
H    -2.384000000     4.510000000     3.453000000
H    -3.018000000     4.572000000     2.080000000
O    -7.198000000     5.545000000     0.394000000
H    -6.615000000     5.061000000    -0.191000000
H    -7.496000000     6.290000000    -0.127000000
