215
-1461.69621
C    -4.058000000    -3.748000000    -0.194000000
H    -3.850000000    -3.720000000    -1.260000000
C    -4.173000000    -2.596000000     0.585000000
C    -4.328000000    -2.685000000     1.934000000
H    -4.334000000    -1.773000000     2.526000000
C    -4.111000000    -1.206000000    -0.078000000
O    -4.616000000    -1.288000000    -1.464000000
H    -3.033000000    -0.994000000    -0.139000000
O    -4.821000000    -0.206000000     0.698000000
C    -4.288000000     1.073000000     0.832000000
C    -3.663000000     1.434000000     2.041000000
H    -3.788000000     0.750000000     2.877000000
C    -2.971000000     2.692000000     2.073000000
O    -2.278000000     2.961000000     3.238000000
C    -3.080000000     3.620000000     1.067000000
C    -2.398000000     5.044000000     1.142000000
H    -2.836000000     5.776000000     0.460000000
C    -0.858000000     4.836000000     0.861000000
C    -0.390000000     5.138000000    -0.430000000
H    -1.133000000     5.382000000    -1.184000000
H    -2.514000000     5.455000000     2.146000000
C    -3.702000000     3.194000000    -0.116000000
H    -3.700000000     3.798000000    -1.021000000
C    -4.286000000     1.961000000    -0.215000000
C    -4.946000000     1.618000000    -1.557000000
H    -5.195000000     2.490000000    -2.165000000
H    -5.873000000     1.074000000    -1.364000000
C    -4.000000000     0.913000000    -2.449000000
C    -3.223000000     1.572000000    -3.374000000
H    -3.283000000     2.655000000    -3.446000000
C    -3.961000000    -0.494000000    -2.398000000
C    -3.172000000    -1.153000000    -3.304000000
H    -2.978000000    -2.221000000    -3.239000000
C    -2.371000000    -0.469000000    -4.164000000
O    -1.358000000    -1.170000000    -4.803000000
C    -0.072000000    -1.039000000    -4.131000000
C     0.587000000    -2.422000000    -4.032000000
C     1.958000000    -2.542000000    -4.080000000
H     2.591000000    -1.661000000    -4.143000000
C    -0.132000000    -3.598000000    -3.870000000
H    -1.210000000    -3.502000000    -3.765000000
O     0.736000000    -0.156000000    -4.829000000
H    -0.206000000    -0.673000000    -3.102000000
C    -2.381000000     0.919000000    -4.255000000
C    -1.437000000     1.736000000    -5.074000000
H    -1.947000000     2.658000000    -5.361000000
H    -1.179000000     1.293000000    -6.039000000
C    -0.137000000     2.080000000    -4.393000000
C    -0.008000000     3.335000000    -3.775000000
H    -0.779000000     4.099000000    -3.832000000
C     0.865000000     1.108000000    -4.224000000
C     2.041000000     1.384000000    -3.521000000
H     2.886000000     0.707000000    -3.428000000
C     2.095000000     2.590000000    -2.883000000
O     3.282000000     2.791000000    -2.195000000
C     3.165000000     2.803000000    -0.736000000
C     4.229000000     2.021000000    -0.133000000
C     4.572000000     0.810000000    -0.713000000
H     4.172000000     0.521000000    -1.682000000
C     4.785000000     2.457000000     1.096000000
H     4.619000000     3.462000000     1.477000000
O     3.146000000     4.109000000    -0.232000000
H     2.232000000     2.339000000    -0.381000000
C     1.105000000     3.594000000    -3.002000000
C     1.224000000     4.947000000    -2.291000000
H     0.479000000     5.581000000    -2.775000000
H     2.204000000     5.344000000    -2.564000000
C     0.927000000     4.863000000    -0.807000000
C     1.842000000     4.517000000     0.111000000
C     1.437000000     4.351000000     1.442000000
H     2.149000000     3.934000000     2.149000000
C     0.092000000     4.493000000     1.829000000
O    -0.254000000     4.132000000     3.099000000
C    -0.845000000     2.799000000     3.174000000
H    -0.558000000     2.271000000     2.253000000
C    -0.211000000     1.970000000     4.297000000
C    -0.679000000     0.695000000     4.521000000
H    -1.502000000     0.318000000     3.921000000
C     1.002000000     2.275000000     4.934000000
H     1.456000000     3.262000000     4.898000000
C     1.646000000     1.402000000     5.788000000
O     2.894000000     1.791000000     6.302000000
C     1.143000000     0.116000000     6.053000000
H     1.712000000    -0.485000000     6.758000000
C    -0.060000000    -0.168000000     5.409000000
O    -0.424000000    -1.537000000     5.514000000
C    -1.708000000    -1.985000000     5.613000000
C    -2.305000000    -2.816000000     4.640000000
H    -1.704000000    -3.040000000     3.762000000
C    -2.418000000    -1.594000000     6.695000000
H    -1.892000000    -0.949000000     7.393000000
C    -3.732000000    -2.142000000     6.945000000
H    -4.282000000    -1.842000000     7.832000000
C    -4.332000000    -2.913000000     5.979000000
H    -5.389000000    -3.106000000     6.143000000
C    -3.593000000    -3.270000000     4.845000000
O    -4.276000000    -4.024000000     3.907000000
C    -4.245000000    -3.928000000     2.517000000
C    -4.353000000    -5.076000000     1.748000000
H    -4.477000000    -6.041000000     2.232000000
C    -4.145000000    -5.039000000     0.341000000
O    -4.097000000    -6.171000000    -0.444000000
C    -3.455000000    -6.231000000    -1.640000000
C    -2.069000000    -6.098000000    -1.827000000
H    -1.371000000    -5.853000000    -1.031000000
C    -4.255000000    -6.658000000    -2.653000000
H    -5.306000000    -6.821000000    -2.428000000
C    -3.705000000    -6.901000000    -3.926000000
H    -4.235000000    -7.272000000    -4.800000000
C    -2.335000000    -6.781000000    -4.140000000
H    -1.889000000    -6.929000000    -5.120000000
C    -1.551000000    -6.279000000    -3.103000000
O    -0.199000000    -6.038000000    -3.383000000
C     0.458000000    -4.869000000    -3.691000000
C     1.879000000    -4.909000000    -3.701000000
H     2.391000000    -5.858000000    -3.570000000
C     2.590000000    -3.794000000    -3.920000000
O     3.988000000    -3.930000000    -4.141000000
C     4.928000000    -2.984000000    -3.684000000
C     5.058000000    -2.584000000    -2.384000000
H     4.570000000    -3.163000000    -1.604000000
C     5.346000000    -2.117000000    -4.691000000
H     5.146000000    -2.381000000    -5.726000000
C     6.074000000    -0.945000000    -4.412000000
H     6.370000000    -0.205000000    -5.150000000
C     6.277000000    -0.637000000    -3.054000000
H     6.853000000     0.240000000    -2.772000000
C     5.755000000    -1.457000000    -2.079000000
O     6.015000000    -1.151000000    -0.733000000
C     5.590000000     0.051000000    -0.114000000
C     6.075000000     0.483000000     1.140000000
H     6.872000000    -0.116000000     1.573000000
C     5.666000000     1.644000000     1.724000000
O     6.284000000     2.035000000     2.927000000
C     5.489000000     2.623000000     3.887000000
C     5.678000000     3.967000000     4.213000000
H     6.348000000     4.499000000     3.541000000
C     4.829000000     4.633000000     5.123000000
H     4.969000000     5.703000000     5.256000000
C     3.957000000     3.839000000     5.861000000
H     3.486000000     4.235000000     6.758000000
C     3.752000000     2.473000000     5.550000000
C     4.529000000     1.856000000     4.518000000
H     4.407000000     0.783000000     4.395000000
C     2.121000000    -1.697000000     0.567000000
H     2.974000000    -1.559000000     1.227000000
C     1.375000000    -0.498000000     0.288000000
H     1.750000000     0.437000000     0.695000000
C     0.155000000    -0.516000000    -0.357000000
H    -0.351000000     0.412000000    -0.619000000
C    -0.302000000    -1.750000000    -0.701000000
H    -1.242000000    -1.932000000    -1.217000000
C     0.438000000    -2.939000000    -0.442000000
H     0.028000000    -3.869000000    -0.829000000
C     1.621000000    -2.940000000     0.273000000
C     2.386000000    -4.195000000     0.559000000
O     1.770000000    -5.221000000     0.512000000
O     3.611000000    -4.185000000     0.767000000
O     1.400000000    -4.044000000     5.887000000
H     0.858000000    -3.485000000     6.444000000
H     1.889000000    -3.433000000     5.338000000
O     2.460000000    -9.085000000     5.159000000
H     1.610000000    -8.990000000     5.588000000
H     2.475000000    -8.391000000     4.500000000
O    -0.733000000    -6.020000000     5.391000000
H    -1.044000000    -6.270000000     4.521000000
H    -0.021000000    -5.403000000     5.222000000
O     2.934000000    -9.954000000     1.784000000
H     2.702000000    -9.063000000     2.044000000
H     3.261000000   -10.360000000     2.587000000
O     6.730000000    -4.748000000     3.014000000
H     6.138000000    -4.162000000     2.542000000
H     6.412000000    -5.627000000     2.809000000
O     2.395000000    -7.537000000     2.862000000
H     2.794000000    -6.675000000     2.978000000
H     1.455000000    -7.363000000     2.824000000
O     3.549000000    -5.044000000     3.236000000
H     4.366000000    -5.409000000     3.574000000
H     3.711000000    -4.919000000     2.301000000
O     6.854000000    -6.368000000    -0.599000000
H     7.059000000    -5.508000000    -0.965000000
H     7.647000000    -6.885000000    -0.743000000
O    -0.118000000    -6.213000000     2.332000000
H    -0.808000000    -6.342000000     1.681000000
H     0.537000000    -5.677000000     1.884000000
O     5.596000000    -2.797000000     1.495000000
H     4.772000000    -3.181000000     1.197000000
H     5.891000000    -2.260000000     0.761000000
O    -2.211000000    -8.936000000     0.648000000
H    -1.535000000    -8.710000000     0.009000000
H    -1.753000000    -9.457000000     1.308000000
O     6.001000000    -1.525000000     4.134000000
H     5.892000000    -1.882000000     3.253000000
H     6.945000000    -1.391000000     4.223000000
O     5.392000000    -6.978000000     1.934000000
H     5.980000000    -6.751000000     1.214000000
H     4.559000000    -7.182000000     1.508000000
O     3.571000000    -7.312000000    -0.296000000
H     4.219000000    -6.782000000    -0.761000000
H     2.816000000    -6.732000000    -0.195000000
O     0.708000000    -7.485000000    -0.392000000
H     1.376000000    -8.159000000    -0.510000000
H     1.193000000    -6.717000000    -0.087000000
O     1.055000000    -8.653000000    -3.928000000
H     0.606000000    -7.808000000    -3.938000000
H     1.825000000    -8.522000000    -4.480000000
O     6.676000000    -5.725000000    -3.477000000
H     7.164000000    -5.214000000    -2.832000000
H     6.886000000    -5.314000000    -4.316000000
O     3.251000000    -2.416000000     4.098000000
H     3.445000000    -3.260000000     3.691000000
H     4.087000000    -1.949000000     4.092000000
O     5.155000000    -7.851000000    -3.678000000
H     5.589000000    -7.003000000    -3.575000000
H     4.757000000    -7.812000000    -4.547000000
