215
-1456.12832
C    -0.040000000     2.249000000     4.247000000
H     0.888000000     2.647000000     3.845000000
C    -0.218000000     0.894000000     4.506000000
C    -1.508000000     0.491000000     4.973000000
H    -1.754000000    -0.567000000     5.009000000
C     0.812000000    -0.095000000     4.011000000
O     2.111000000     0.427000000     4.322000000
H     0.783000000    -0.135000000     2.912000000
O     0.644000000    -1.322000000     4.706000000
C     0.715000000    -2.396000000     3.861000000
C    -0.479000000    -2.955000000     3.346000000
H    -1.450000000    -2.550000000     3.620000000
C    -0.498000000    -3.914000000     2.323000000
O    -1.708000000    -4.239000000     1.800000000
C     0.761000000    -4.355000000     1.939000000
C     0.820000000    -5.515000000     0.899000000
H     1.812000000    -5.951000000     1.037000000
C     0.720000000    -4.908000000    -0.512000000
C     1.867000000    -4.361000000    -1.084000000
H     2.811000000    -4.479000000    -0.558000000
H     0.074000000    -6.297000000     1.049000000
C     1.925000000    -3.891000000     2.481000000
H     2.851000000    -4.343000000     2.135000000
C     1.964000000    -2.886000000     3.424000000
C     3.267000000    -2.207000000     3.915000000
H     4.126000000    -2.880000000     3.964000000
H     3.210000000    -1.866000000     4.951000000
C     3.671000000    -0.933000000     3.129000000
C     4.551000000    -1.034000000     2.070000000
H     5.093000000    -1.944000000     1.826000000
C     3.087000000     0.309000000     3.334000000
C     3.437000000     1.464000000     2.644000000
H     3.041000000     2.423000000     2.969000000
C     4.189000000     1.320000000     1.478000000
O     4.472000000     2.381000000     0.673000000
C     3.633000000     2.464000000    -0.401000000
C     3.006000000     3.858000000    -0.531000000
C     2.168000000     4.133000000    -1.629000000
H     2.117000000     3.431000000    -2.457000000
C     2.942000000     4.725000000     0.563000000
H     3.490000000     4.547000000     1.484000000
O     4.351000000     2.105000000    -1.640000000
H     2.743000000     1.816000000    -0.405000000
C     4.718000000     0.011000000     1.202000000
C     5.588000000    -0.196000000    -0.090000000
H     6.182000000    -1.103000000     0.043000000
H     6.402000000     0.521000000    -0.215000000
C     4.713000000    -0.398000000    -1.276000000
C     4.416000000    -1.709000000    -1.672000000
H     4.937000000    -2.490000000    -1.125000000
C     4.197000000     0.779000000    -1.956000000
C     3.265000000     0.479000000    -3.051000000
H     2.849000000     1.333000000    -3.580000000
C     2.960000000    -0.803000000    -3.399000000
O     2.020000000    -0.980000000    -4.390000000
C     0.725000000    -1.336000000    -3.874000000
C    -0.264000000    -0.462000000    -4.566000000
C     0.103000000     0.700000000    -5.269000000
H     1.150000000     0.931000000    -5.442000000
C    -1.629000000    -0.848000000    -4.428000000
H    -1.937000000    -1.782000000    -3.966000000
O     0.508000000    -2.741000000    -4.038000000
H     0.741000000    -1.141000000    -2.791000000
C     3.569000000    -1.902000000    -2.727000000
C     3.169000000    -3.348000000    -3.034000000
H     3.942000000    -3.974000000    -2.584000000
H     3.004000000    -3.488000000    -4.105000000
C     1.831000000    -3.725000000    -2.309000000
C     0.564000000    -3.500000000    -2.923000000
C    -0.599000000    -3.923000000    -2.368000000
H    -1.590000000    -3.647000000    -2.719000000
C    -0.477000000    -4.635000000    -1.121000000
O    -1.649000000    -4.885000000    -0.480000000
C    -1.964000000    -3.866000000     0.490000000
H    -1.282000000    -3.037000000     0.251000000
C    -3.367000000    -3.372000000     0.313000000
C    -3.913000000    -2.536000000     1.326000000
H    -3.334000000    -2.192000000     2.179000000
C    -4.133000000    -3.669000000    -0.798000000
H    -3.846000000    -4.321000000    -1.619000000
C    -5.506000000    -3.234000000    -0.828000000
O    -6.254000000    -3.397000000    -2.010000000
C    -6.045000000    -2.514000000     0.153000000
H    -7.027000000    -2.080000000    -0.018000000
C    -5.268000000    -2.155000000     1.243000000
O    -5.779000000    -1.309000000     2.148000000
C    -5.300000000    -1.277000000     3.506000000
C    -4.827000000    -0.085000000     4.081000000
H    -4.794000000     0.829000000     3.494000000
C    -5.393000000    -2.426000000     4.310000000
H    -5.848000000    -3.268000000     3.795000000
C    -4.910000000    -2.425000000     5.652000000
H    -5.027000000    -3.267000000     6.328000000
C    -4.417000000    -1.232000000     6.157000000
H    -4.080000000    -1.268000000     7.190000000
C    -4.320000000    -0.087000000     5.334000000
O    -3.648000000     1.025000000     5.758000000
C    -2.423000000     1.404000000     5.310000000
C    -2.227000000     2.770000000     5.076000000
H    -2.998000000     3.524000000     5.214000000
C    -1.082000000     3.144000000     4.395000000
O    -0.899000000     4.470000000     4.083000000
C     0.303000000     5.124000000     3.995000000
C     0.779000000     5.564000000     2.774000000
H     0.232000000     5.429000000     1.845000000
C     1.051000000     5.422000000     5.163000000
H     0.735000000     5.077000000     6.144000000
C     2.147000000     6.221000000     5.001000000
H     2.586000000     6.571000000     5.932000000
C     2.601000000     6.751000000     3.781000000
H     3.484000000     7.383000000     3.740000000
C     1.908000000     6.324000000     2.681000000
O     2.496000000     6.736000000     1.512000000
C     2.340000000     5.977000000     0.451000000
C     1.520000000     6.214000000    -0.633000000
H     1.072000000     7.201000000    -0.714000000
C     1.386000000     5.288000000    -1.685000000
O     0.609000000     5.585000000    -2.757000000
C     0.911000000     4.966000000    -4.005000000
C     0.013000000     3.993000000    -4.501000000
H    -0.863000000     3.610000000    -3.984000000
C     2.021000000     5.330000000    -4.658000000
H     2.731000000     6.064000000    -4.285000000
C     2.339000000     4.766000000    -5.922000000
H     3.240000000     5.127000000    -6.412000000
C     1.344000000     3.942000000    -6.585000000
H     1.466000000     3.634000000    -7.620000000
C     0.211000000     3.565000000    -5.859000000
O    -0.719000000     2.685000000    -6.409000000
C    -0.908000000     1.448000000    -5.830000000
C    -2.245000000     1.117000000    -5.551000000
H    -3.060000000     1.783000000    -5.822000000
C    -2.594000000    -0.021000000    -4.930000000
O    -3.946000000    -0.309000000    -4.699000000
C    -4.420000000    -1.561000000    -4.529000000
C    -4.185000000    -2.589000000    -5.478000000
H    -3.490000000    -2.489000000    -6.308000000
C    -4.801000000    -3.821000000    -5.269000000
H    -4.742000000    -4.626000000    -5.998000000
C    -5.439000000    -4.101000000    -4.053000000
H    -5.806000000    -5.077000000    -3.746000000
C    -5.617000000    -3.081000000    -3.163000000
C    -5.219000000    -1.754000000    -3.421000000
H    -5.415000000    -1.012000000    -2.652000000
C    -0.807000000     1.975000000    -1.281000000
H    -0.503000000     2.658000000    -2.070000000
C     0.082000000     1.002000000    -0.974000000
H     1.061000000     0.995000000    -1.446000000
C    -0.309000000    -0.030000000    -0.101000000
H     0.409000000    -0.820000000    -0.059000000
C    -1.624000000    -0.057000000     0.400000000
H    -1.846000000    -0.879000000     1.077000000
C    -2.494000000     1.001000000     0.122000000
H    -3.513000000     1.008000000     0.501000000
C    -2.102000000     1.984000000    -0.750000000
C    -3.117000000     3.024000000    -1.164000000
O    -4.258000000     2.873000000    -0.786000000
O    -2.807000000     3.853000000    -1.998000000
O    -2.408000000     8.421000000    -4.292000000
H    -1.858000000     8.467000000    -3.510000000
H    -2.912000000     7.615000000    -4.183000000
O    -7.183000000     2.047000000     2.034000000
H    -7.096000000     2.497000000     1.194000000
H    -6.948000000     2.708000000     2.686000000
O    -4.780000000     3.536000000     2.925000000
H    -4.736000000     2.878000000     2.232000000
H    -4.067000000     4.142000000     2.725000000
O    -7.541000000     0.510000000    -4.211000000
H    -6.866000000     0.562000000    -3.534000000
H    -8.348000000     0.766000000    -3.765000000
O    -2.400000000     7.121000000     2.709000000
H    -3.139000000     7.047000000     3.314000000
H    -2.687000000     6.655000000     1.923000000
O    -3.758000000     5.361000000    -6.727000000
H    -4.569000000     4.872000000    -6.864000000
H    -3.703000000     5.473000000    -5.778000000
O    -7.798000000     0.419000000    -0.160000000
H    -7.474000000     0.525000000     0.734000000
H    -8.643000000    -0.019000000    -0.058000000
O    -4.663000000     7.160000000    -1.931000000
H    -5.311000000     6.502000000    -1.680000000
H    -5.071000000     7.996000000    -1.706000000
O    -8.864000000     3.096000000    -2.015000000
H    -9.084000000     4.028000000    -2.008000000
H    -8.192000000     3.004000000    -1.339000000
O    -6.464000000     5.195000000    -2.880000000
H    -6.591000000     5.681000000    -3.695000000
H    -6.063000000     4.370000000    -3.153000000
O    -5.966000000     1.311000000    -2.194000000
H    -5.515000000     1.977000000    -1.675000000
H    -6.598000000     0.923000000    -1.589000000
O    -3.285000000     5.757000000    -3.770000000
H    -3.906000000     6.185000000    -3.180000000
H    -2.961000000     5.006000000    -3.274000000
O    -8.813000000     6.143000000    -1.796000000
H    -8.625000000     6.743000000    -1.074000000
H    -7.964000000     5.757000000    -2.013000000
O    -6.510000000     6.486000000     0.448000000
H    -6.639000000     6.009000000     1.268000000
H    -5.896000000     7.186000000     0.672000000
O    -4.835000000     3.121000000    -4.271000000
H    -5.008000000     2.194000000    -4.107000000
H    -4.328000000     3.408000000    -3.511000000
O    -6.017000000     3.807000000    -6.801000000
H    -5.893000000     3.483000000    -5.909000000
H    -6.207000000     3.024000000    -7.317000000
O    -3.295000000     5.600000000     0.589000000
H    -2.960000000     4.987000000    -0.066000000
H    -3.711000000     6.294000000     0.077000000
O    -1.074000000     8.867000000    -1.913000000
H    -1.824000000     9.239000000    -1.450000000
H    -0.586000000     8.396000000    -1.238000000
O    -6.791000000     3.509000000    -0.138000000
H    -5.914000000     3.127000000    -0.177000000
H    -6.696000000     4.369000000    -0.547000000
