215
-1457.32781
C     0.775000000     2.297000000     4.898000000
H     1.535000000     2.581000000     4.175000000
C     0.303000000     1.018000000     5.089000000
C    -0.867000000     0.755000000     5.804000000
H    -1.232000000    -0.266000000     5.892000000
C     0.979000000    -0.167000000     4.298000000
O     2.395000000     0.025000000     4.317000000
H     0.589000000     0.021000000     3.287000000
O     0.694000000    -1.493000000     4.895000000
C     0.518000000    -2.444000000     3.997000000
C    -0.813000000    -2.692000000     3.620000000
H    -1.631000000    -2.241000000     4.175000000
C    -1.120000000    -3.717000000     2.801000000
O    -2.343000000    -3.836000000     2.317000000
C    -0.064000000    -4.446000000     2.198000000
C    -0.339000000    -5.396000000     1.071000000
H     0.457000000    -6.143000000     1.066000000
C    -0.346000000    -4.752000000    -0.309000000
C     0.769000000    -4.713000000    -1.089000000
H     1.651000000    -5.128000000    -0.607000000
H    -1.196000000    -6.030000000     1.308000000
C     1.260000000    -4.293000000     2.597000000
H     1.971000000    -4.902000000     2.045000000
C     1.531000000    -3.251000000     3.498000000
C     2.955000000    -2.949000000     3.795000000
H     3.579000000    -3.817000000     3.573000000
H     3.058000000    -2.614000000     4.829000000
C     3.431000000    -1.766000000     2.924000000
C     4.063000000    -2.050000000     1.708000000
H     4.281000000    -3.089000000     1.475000000
C     3.136000000    -0.393000000     3.201000000
C     3.613000000     0.641000000     2.414000000
H     3.304000000     1.661000000     2.628000000
C     4.306000000     0.343000000     1.244000000
O     4.593000000     1.409000000     0.455000000
C     3.737000000     1.476000000    -0.715000000
C     3.168000000     2.865000000    -1.041000000
C     3.068000000     3.388000000    -2.358000000
H     3.385000000     2.747000000    -3.177000000
C     2.739000000     3.701000000    -0.010000000
H     2.877000000     3.280000000     0.983000000
O     4.453000000     0.883000000    -1.838000000
H     2.808000000     0.933000000    -0.489000000
C     4.557000000    -0.990000000     0.930000000
C     5.259000000    -1.374000000    -0.400000000
H     5.760000000    -2.335000000    -0.267000000
H     6.071000000    -0.658000000    -0.545000000
C     4.349000000    -1.421000000    -1.558000000
C     3.771000000    -2.640000000    -1.913000000
H     4.100000000    -3.459000000    -1.278000000
C     3.965000000    -0.231000000    -2.229000000
C     3.074000000    -0.340000000    -3.280000000
H     2.819000000     0.542000000    -3.861000000
C     2.512000000    -1.590000000    -3.595000000
O     1.604000000    -1.686000000    -4.608000000
C     0.292000000    -1.623000000    -4.095000000
C    -0.529000000    -0.612000000    -4.941000000
C     0.092000000     0.505000000    -5.566000000
H     1.176000000     0.563000000    -5.616000000
C    -1.925000000    -0.770000000    -4.999000000
H    -2.357000000    -1.682000000    -4.595000000
O    -0.303000000    -2.937000000    -3.994000000
H     0.312000000    -1.297000000    -3.044000000
C     2.832000000    -2.707000000    -2.874000000
C     2.152000000    -4.010000000    -3.103000000
H     2.759000000    -4.863000000    -2.793000000
H     1.972000000    -4.220000000    -4.159000000
C     0.843000000    -4.091000000    -2.330000000
C    -0.344000000    -3.571000000    -2.812000000
C    -1.537000000    -3.537000000    -2.069000000
H    -2.426000000    -3.086000000    -2.503000000
C    -1.526000000    -4.204000000    -0.811000000
O    -2.634000000    -4.174000000    -0.007000000
C    -2.606000000    -3.175000000     0.986000000
H    -1.742000000    -2.521000000     0.799000000
C    -3.879000000    -2.318000000     0.989000000
C    -4.165000000    -1.528000000     2.078000000
H    -3.596000000    -1.506000000     3.004000000
C    -4.512000000    -1.993000000    -0.189000000
H    -4.395000000    -2.659000000    -1.040000000
C    -5.429000000    -0.940000000    -0.301000000
O    -6.078000000    -0.524000000    -1.462000000
C    -5.788000000    -0.217000000     0.835000000
H    -6.531000000     0.575000000     0.786000000
C    -5.167000000    -0.509000000     2.045000000
O    -5.381000000     0.300000000     3.168000000
C    -5.023000000     0.098000000     4.418000000
C    -4.058000000     0.883000000     4.994000000
H    -3.677000000     1.720000000     4.414000000
C    -5.504000000    -0.973000000     5.149000000
H    -6.299000000    -1.618000000     4.786000000
C    -5.045000000    -1.190000000     6.453000000
H    -5.476000000    -2.041000000     6.975000000
C    -4.122000000    -0.396000000     7.086000000
H    -3.683000000    -0.500000000     8.075000000
C    -3.690000000     0.691000000     6.281000000
O    -2.872000000     1.592000000     6.881000000
C    -1.574000000     1.804000000     6.367000000
C    -1.103000000     3.094000000     6.186000000
H    -1.760000000     3.950000000     6.314000000
C     0.009000000     3.353000000     5.420000000
O     0.427000000     4.653000000     5.161000000
C     1.387000000     5.111000000     4.311000000
C     1.127000000     5.212000000     2.897000000
H     0.262000000     4.717000000     2.462000000
C     2.470000000     5.722000000     4.855000000
H     2.618000000     5.596000000     5.924000000
C     3.476000000     6.194000000     4.085000000
H     4.348000000     6.597000000     4.594000000
C     3.312000000     6.220000000     2.679000000
H     4.020000000     6.704000000     2.011000000
C     2.103000000     5.745000000     2.174000000
O     1.899000000     5.940000000     0.781000000
C     2.221000000     4.970000000    -0.198000000
C     2.082000000     5.437000000    -1.507000000
H     1.782000000     6.452000000    -1.754000000
C     2.481000000     4.642000000    -2.587000000
O     2.417000000     5.182000000    -3.883000000
C     2.385000000     4.413000000    -5.065000000
C     1.185000000     3.799000000    -5.401000000
H     0.278000000     3.914000000    -4.814000000
C     3.518000000     4.272000000    -5.871000000
H     4.439000000     4.719000000    -5.505000000
C     3.485000000     3.478000000    -6.998000000
H     4.274000000     3.302000000    -7.725000000
C     2.248000000     2.843000000    -7.322000000
H     2.106000000     2.121000000    -8.122000000
C     1.138000000     3.058000000    -6.583000000
O    -0.060000000     2.463000000    -6.870000000
C    -0.678000000     1.438000000    -6.200000000
C    -2.072000000     1.283000000    -6.215000000
H    -2.669000000     2.036000000    -6.724000000
C    -2.701000000     0.190000000    -5.648000000
O    -4.126000000     0.027000000    -5.752000000
C    -4.844000000    -0.705000000    -4.867000000
C    -5.327000000    -1.911000000    -5.331000000
H    -5.123000000    -2.231000000    -6.350000000
C    -6.135000000    -2.630000000    -4.437000000
H    -6.619000000    -3.563000000    -4.713000000
C    -6.311000000    -2.242000000    -3.126000000
H    -6.827000000    -2.864000000    -2.399000000
C    -5.859000000    -1.010000000    -2.734000000
C    -5.079000000    -0.284000000    -3.561000000
H    -4.680000000     0.664000000    -3.211000000
C    -1.502000000     1.641000000    -2.076000000
H    -1.364000000     2.198000000    -3.000000000
C    -0.406000000     0.823000000    -1.661000000
H     0.437000000     0.769000000    -2.345000000
C    -0.383000000     0.156000000    -0.434000000
H     0.505000000    -0.413000000    -0.173000000
C    -1.416000000     0.443000000     0.459000000
H    -1.445000000    -0.088000000     1.407000000
C    -2.553000000     1.244000000     0.094000000
H    -3.309000000     1.426000000     0.854000000
C    -2.542000000     1.878000000    -1.159000000
C    -3.692000000     2.783000000    -1.525000000
O    -4.616000000     2.877000000    -0.759000000
O    -3.780000000     3.286000000    -2.634000000
O    -0.784000000     6.807000000    -2.118000000
H    -1.726000000     6.643000000    -2.176000000
H    -0.579000000     7.304000000    -2.910000000
O    -7.202000000     6.074000000    -0.789000000
H    -7.178000000     5.190000000    -1.155000000
H    -6.382000000     6.152000000    -0.301000000
O    -8.377000000     1.332000000    -2.132000000
H    -8.149000000     0.480000000    -2.502000000
H    -9.122000000     1.153000000    -1.559000000
O    -5.113000000     3.335000000     1.904000000
H    -5.976000000     2.995000000     1.670000000
H    -4.528000000     2.989000000     1.230000000
O    -2.121000000     5.794000000     1.635000000
H    -1.215000000     6.058000000     1.479000000
H    -2.618000000     6.216000000     0.934000000
O    -7.018000000     5.418000000    -3.969000000
H    -6.910000000     5.045000000    -3.094000000
H    -6.262000000     5.995000000    -4.079000000
O    -3.084000000     4.541000000     3.802000000
H    -2.873000000     5.290000000     3.245000000
H    -3.657000000     3.995000000     3.264000000
O    -7.382000000     3.522000000    -6.521000000
H    -7.644000000     4.290000000    -6.014000000
H    -6.822000000     3.022000000    -5.926000000
O    -2.547000000     5.545000000    -7.029000000
H    -3.494000000     5.555000000    -6.889000000
H    -2.203000000     5.018000000    -6.308000000
O   -10.057000000     3.499000000    -2.315000000
H    -9.432000000     2.785000000    -2.186000000
H    -9.952000000     3.745000000    -3.234000000
O    -3.312000000     7.864000000    -3.601000000
H    -3.862000000     7.680000000    -4.362000000
H    -3.396000000     7.085000000    -3.050000000
O    -6.731000000     3.580000000    -2.074000000
H    -5.797000000     3.404000000    -1.961000000
H    -7.111000000     2.730000000    -2.297000000
O    -7.497000000     2.593000000     0.546000000
H    -6.643000000     2.802000000     0.166000000
H    -8.074000000     2.482000000    -0.209000000
O    -2.104000000     4.631000000    -4.318000000
H    -1.446000000     5.013000000    -3.737000000
H    -2.549000000     3.978000000    -3.778000000
O    -4.732000000     1.543000000    -8.203000000
H    -3.860000000     1.302000000    -8.514000000
H    -4.660000000     1.522000000    -7.249000000
O    -4.893000000     2.871000000    -5.127000000
H    -4.542000000     3.015000000    -4.249000000
H    -4.938000000     3.746000000    -5.514000000
O    -3.382000000     5.930000000    -1.662000000
H    -3.948000000     6.021000000    -0.895000000
H    -3.506000000     5.024000000    -1.944000000
O    -4.887000000     6.033000000     0.749000000
H    -5.124000000     6.257000000     1.649000000
H    -4.864000000     5.076000000     0.739000000
O    -8.184000000     5.728000000     1.939000000
H    -7.814000000     5.561000000     1.072000000
H    -7.454000000     6.083000000     2.446000000
