215
-1445.16711
C     2.222000000     1.860000000     4.130000000
H     2.851000000     1.819000000     3.245000000
C     1.368000000     0.781000000     4.427000000
C     0.266000000     0.996000000     5.276000000
H    -0.532000000     0.258000000     5.291000000
C     1.559000000    -0.576000000     3.776000000
O     2.934000000    -0.891000000     3.680000000
H     1.173000000    -0.349000000     2.771000000
O     0.846000000    -1.646000000     4.483000000
C     0.158000000    -2.622000000     3.854000000
C    -1.178000000    -2.415000000     3.613000000
H    -1.671000000    -1.545000000     4.040000000
C    -1.843000000    -3.303000000     2.737000000
O    -3.171000000    -2.991000000     2.510000000
C    -1.231000000    -4.474000000     2.174000000
C    -1.851000000    -5.269000000     1.056000000
H    -1.247000000    -6.142000000     0.799000000
C    -1.988000000    -4.534000000    -0.275000000
C    -0.990000000    -4.807000000    -1.293000000
H    -0.287000000    -5.602000000    -1.058000000
H    -2.868000000    -5.603000000     1.275000000
C     0.093000000    -4.695000000     2.495000000
H     0.657000000    -5.513000000     2.054000000
C     0.804000000    -3.727000000     3.192000000
C     2.332000000    -3.869000000     3.254000000
H     2.634000000    -4.836000000     2.846000000
H     2.691000000    -3.907000000     4.284000000
C     3.099000000    -2.906000000     2.282000000
C     3.473000000    -3.413000000     1.024000000
H     3.291000000    -4.465000000     0.820000000
C     3.306000000    -1.542000000     2.552000000
C     4.073000000    -0.848000000     1.640000000
H     4.247000000     0.199000000     1.879000000
C     4.447000000    -1.304000000     0.417000000
O     4.980000000    -0.385000000    -0.451000000
C     4.183000000     0.252000000    -1.443000000
C     4.408000000     1.749000000    -1.692000000
C     3.901000000     2.369000000    -2.839000000
H     3.527000000     1.739000000    -3.642000000
C     4.823000000     2.503000000    -0.626000000
H     5.087000000     2.040000000     0.322000000
O     4.303000000    -0.480000000    -2.674000000
H     3.163000000     0.262000000    -1.032000000
C     4.088000000    -2.611000000     0.048000000
C     4.362000000    -3.179000000    -1.309000000
H     4.512000000    -4.257000000    -1.229000000
H     5.309000000    -2.767000000    -1.664000000
C     3.343000000    -2.737000000    -2.332000000
C     2.308000000    -3.626000000    -2.621000000
H     2.243000000    -4.561000000    -2.071000000
C     3.323000000    -1.441000000    -2.943000000
C     2.321000000    -1.068000000    -3.784000000
H     2.254000000    -0.011000000    -4.032000000
C     1.241000000    -1.996000000    -3.997000000
O     0.143000000    -1.585000000    -4.665000000
C    -1.015000000    -1.224000000    -3.827000000
C    -1.630000000     0.131000000    -4.357000000
C    -0.833000000     1.081000000    -4.944000000
H     0.247000000     0.968000000    -5.000000000
C    -3.049000000     0.362000000    -4.187000000
H    -3.687000000    -0.385000000    -3.721000000
O    -1.995000000    -2.232000000    -3.759000000
H    -0.679000000    -0.971000000    -2.811000000
C     1.318000000    -3.303000000    -3.463000000
C     0.070000000    -4.242000000    -3.552000000
H     0.564000000    -5.178000000    -3.284000000
H    -0.382000000    -4.362000000    -4.538000000
C    -0.972000000    -3.982000000    -2.460000000
C    -1.942000000    -3.041000000    -2.657000000
C    -2.943000000    -2.846000000    -1.728000000
H    -3.607000000    -1.985000000    -1.722000000
C    -2.948000000    -3.530000000    -0.564000000
O    -3.894000000    -3.014000000     0.348000000
C    -3.451000000    -2.194000000     1.387000000
H    -2.529000000    -1.682000000     1.075000000
C    -4.358000000    -1.026000000     1.603000000
C    -4.171000000    -0.161000000     2.695000000
H    -3.316000000    -0.317000000     3.348000000
C    -5.287000000    -0.637000000     0.644000000
H    -5.446000000    -1.195000000    -0.275000000
C    -6.066000000     0.524000000     0.876000000
O    -6.833000000     0.986000000    -0.169000000
C    -6.029000000     1.221000000     2.062000000
H    -6.628000000     2.124000000     2.148000000
C    -5.014000000     0.900000000     2.934000000
O    -4.702000000     1.766000000     3.969000000
C    -4.104000000     1.351000000     5.097000000
C    -2.875000000     1.965000000     5.333000000
H    -2.600000000     2.697000000     4.578000000
C    -4.790000000     0.710000000     6.173000000
H    -5.817000000     0.389000000     6.019000000
C    -4.048000000     0.551000000     7.390000000
H    -4.409000000    -0.132000000     8.155000000
C    -2.785000000     1.108000000     7.615000000
H    -2.212000000     0.995000000     8.531000000
C    -2.275000000     1.894000000     6.576000000
O    -1.015000000     2.507000000     6.696000000
C     0.066000000     2.237000000     5.871000000
C     0.978000000     3.244000000     5.643000000
H     0.771000000     4.211000000     6.095000000
C     2.045000000     3.061000000     4.795000000
O     2.723000000     4.181000000     4.333000000
C     3.921000000     4.085000000     3.678000000
C     4.003000000     4.343000000     2.300000000
H     3.138000000     4.593000000     1.691000000
C     5.117000000     3.749000000     4.417000000
H     5.168000000     3.426000000     5.454000000
C     6.321000000     3.610000000     3.679000000
H     7.222000000     3.276000000     4.189000000
C     6.409000000     3.868000000     2.308000000
H     7.323000000     3.926000000     1.723000000
C     5.169000000     4.130000000     1.609000000
O     5.334000000     4.677000000     0.326000000
C     4.941000000     3.882000000    -0.725000000
C     4.483000000     4.493000000    -1.894000000
H     4.552000000     5.561000000    -2.087000000
C     4.003000000     3.756000000    -2.938000000
O     3.437000000     4.383000000    -4.057000000
C     2.717000000     3.911000000    -5.099000000
C     1.358000000     3.855000000    -5.089000000
H     0.967000000     4.288000000    -4.172000000
C     3.437000000     3.382000000    -6.172000000
H     4.521000000     3.324000000    -6.237000000
C     2.744000000     2.737000000    -7.178000000
H     3.270000000     2.287000000    -8.017000000
C     1.403000000     2.667000000    -7.209000000
H     0.792000000     2.159000000    -7.951000000
C     0.666000000     3.192000000    -6.170000000
O    -0.697000000     3.095000000    -6.220000000
C    -1.403000000     2.201000000    -5.494000000
C    -2.819000000     2.353000000    -5.450000000
H    -3.242000000     3.230000000    -5.933000000
C    -3.577000000     1.582000000    -4.625000000
O    -4.935000000     1.810000000    -4.474000000
C    -5.712000000     1.097000000    -3.698000000
C    -6.639000000     0.139000000    -4.249000000
H    -6.666000000    -0.007000000    -5.326000000
C    -7.442000000    -0.630000000    -3.421000000
H    -8.050000000    -1.439000000    -3.817000000
C    -7.468000000    -0.285000000    -2.075000000
H    -8.139000000    -0.798000000    -1.391000000
C    -6.639000000     0.673000000    -1.519000000
C    -5.748000000     1.378000000    -2.326000000
H    -5.106000000     2.139000000    -1.890000000
C    -0.614000000     2.214000000    -2.173000000
H    -0.230000000     2.836000000    -2.978000000
C     0.208000000     1.176000000    -1.706000000
H     1.212000000     1.042000000    -2.100000000
C    -0.275000000     0.400000000    -0.608000000
H     0.250000000    -0.409000000    -0.140000000
C    -1.447000000     0.754000000    -0.057000000
H    -1.728000000     0.266000000     0.873000000
C    -2.215000000     1.843000000    -0.479000000
H    -3.081000000     2.103000000     0.123000000
C    -1.822000000     2.569000000    -1.611000000
C    -2.643000000     3.808000000    -1.976000000
O    -3.635000000     4.094000000    -1.382000000
O    -2.088000000     4.700000000    -2.582000000
O     0.112000000     6.041000000    -1.947000000
H    -0.649000000     5.813000000    -2.481000000
H     0.232000000     5.289000000    -1.367000000
O    -4.607000000     8.065000000     0.217000000
H    -5.331000000     8.586000000    -0.130000000
H    -3.993000000     7.992000000    -0.514000000
O    -8.058000000     5.896000000    -2.368000000
H    -7.628000000     5.412000000    -3.074000000
H    -7.390000000     5.972000000    -1.688000000
O    -0.945000000     8.995000000    -1.713000000
H    -0.071000000     8.771000000    -2.035000000
H    -1.433000000     8.173000000    -1.755000000
O    -8.899000000     3.439000000    -4.216000000
H    -7.960000000     3.622000000    -4.262000000
H    -9.032000000     3.093000000    -3.334000000
O    -2.910000000     7.194000000    -1.789000000
H    -2.773000000     6.248000000    -1.843000000
H    -3.405000000     7.411000000    -2.579000000
O    -6.313000000     4.470000000    -4.177000000
H    -5.819000000     5.288000000    -4.109000000
H    -5.664000000     3.821000000    -4.451000000
O    -4.466000000     4.668000000     3.202000000
H    -4.074000000     5.517000000     2.999000000
H    -4.408000000     4.598000000     4.154000000
O    -0.187000000     2.969000000     2.303000000
H     0.382000000     3.522000000     2.839000000
H    -1.011000000     3.453000000     2.251000000
O    -7.593000000     3.610000000    -0.078000000
H    -7.012000000     4.364000000    -0.178000000
H    -7.004000000     2.858000000    -0.031000000
O    -0.823000000     6.486000000     0.782000000
H    -1.096000000     5.631000000     1.116000000
H    -0.784000000     6.371000000    -0.167000000
O     2.100000000     7.602000000    -2.788000000
H     2.713000000     7.690000000    -2.058000000
H     1.419000000     7.015000000    -2.460000000
O    -5.507000000     5.461000000    -0.498000000
H    -4.778000000     5.014000000    -0.929000000
H    -5.098000000     6.185000000    -0.024000000
O     0.822000000     3.818000000    -0.332000000
H     0.260000000     3.044000000    -0.376000000
H     1.694000000     3.495000000    -0.560000000
O    -1.907000000     5.044000000    -7.684000000
H    -2.391000000     5.035000000    -6.857000000
H    -1.156000000     4.471000000    -7.528000000
O    -4.365000000     8.030000000    -4.092000000
H    -3.982000000     8.852000000    -3.786000000
H    -5.298000000     8.223000000    -4.190000000
O    -3.076000000     5.701000000    -5.357000000
H    -3.579000000     6.367000000    -4.889000000
H    -2.539000000     5.288000000    -4.680000000
O    -3.149000000     7.100000000     2.484000000
H    -3.862000000     7.375000000     1.907000000
H    -2.379000000     7.071000000     1.917000000
O    -2.455000000     4.292000000     1.342000000
H    -3.298000000     4.360000000     1.790000000
H    -2.659000000     3.861000000     0.512000000
