215
-1492.64555
C     1.868000000     2.300000000     3.963000000
H     2.905000000     2.065000000     3.739000000
C     1.073000000     1.228000000     4.274000000
C    -0.207000000     1.474000000     4.760000000
H    -0.915000000     0.680000000     4.982000000
C     1.567000000    -0.201000000     4.073000000
O     2.977000000    -0.423000000     4.053000000
H     1.278000000    -0.437000000     3.038000000
O     0.885000000    -1.175000000     4.905000000
C     0.338000000    -2.197000000     4.207000000
C    -1.064000000    -2.092000000     3.931000000
H    -1.548000000    -1.243000000     4.406000000
C    -1.713000000    -3.001000000     3.121000000
O    -3.055000000    -2.749000000     2.817000000
C    -0.951000000    -4.060000000     2.483000000
C    -1.594000000    -4.998000000     1.535000000
H    -1.028000000    -5.928000000     1.617000000
C    -1.569000000    -4.497000000     0.081000000
C    -0.532000000    -4.847000000    -0.833000000
H     0.348000000    -5.365000000    -0.462000000
H    -2.632000000    -5.223000000     1.790000000
C     0.449000000    -4.052000000     2.643000000
H     1.066000000    -4.787000000     2.133000000
C     1.090000000    -3.198000000     3.504000000
C     2.626000000    -3.312000000     3.674000000
H     2.998000000    -4.313000000     3.444000000
H     2.853000000    -3.134000000     4.727000000
C     3.350000000    -2.349000000     2.672000000
C     3.940000000    -2.884000000     1.536000000
H     3.797000000    -3.944000000     1.342000000
C     3.466000000    -1.004000000     2.895000000
C     4.152000000    -0.195000000     2.015000000
H     4.319000000     0.874000000     2.115000000
C     4.514000000    -0.690000000     0.772000000
O     4.948000000     0.213000000    -0.208000000
C     4.048000000     0.616000000    -1.238000000
C     4.292000000     2.062000000    -1.617000000
C     4.012000000     2.457000000    -2.921000000
H     3.703000000     1.740000000    -3.678000000
C     4.602000000     3.022000000    -0.662000000
H     4.794000000     2.639000000     0.337000000
O     4.241000000    -0.239000000    -2.416000000
H     2.990000000     0.656000000    -0.936000000
C     4.409000000    -2.079000000     0.521000000
C     4.759000000    -2.725000000    -0.849000000
H     5.034000000    -3.779000000    -0.767000000
H     5.599000000    -2.116000000    -1.190000000
C     3.629000000    -2.474000000    -1.850000000
C     2.774000000    -3.545000000    -2.122000000
H     3.019000000    -4.470000000    -1.606000000
C     3.398000000    -1.305000000    -2.591000000
C     2.382000000    -1.219000000    -3.510000000
H     2.341000000    -0.343000000    -4.151000000
C     1.434000000    -2.200000000    -3.596000000
O     0.364000000    -2.017000000    -4.468000000
C    -0.848000000    -1.606000000    -3.755000000
C    -1.562000000    -0.451000000    -4.401000000
C    -0.756000000     0.599000000    -4.864000000
H     0.321000000     0.485000000    -4.955000000
C    -2.955000000    -0.250000000    -4.272000000
H    -3.624000000    -0.982000000    -3.827000000
O    -1.641000000    -2.767000000    -3.618000000
H    -0.639000000    -1.328000000    -2.711000000
C     1.647000000    -3.410000000    -2.933000000
C     0.604000000    -4.522000000    -3.117000000
H     1.016000000    -5.507000000    -2.887000000
H     0.242000000    -4.392000000    -4.139000000
C    -0.540000000    -4.320000000    -2.119000000
C    -1.661000000    -3.474000000    -2.461000000
C    -2.696000000    -3.178000000    -1.606000000
H    -3.528000000    -2.578000000    -1.965000000
C    -2.566000000    -3.653000000    -0.286000000
O    -3.582000000    -3.212000000     0.591000000
C    -3.304000000    -2.126000000     1.510000000
H    -2.386000000    -1.640000000     1.148000000
C    -4.427000000    -1.202000000     1.616000000
C    -4.771000000    -0.653000000     2.900000000
H    -4.286000000    -0.892000000     3.843000000
C    -5.099000000    -0.779000000     0.472000000
H    -4.887000000    -1.029000000    -0.565000000
C    -6.214000000     0.047000000     0.609000000
O    -6.818000000     0.668000000    -0.524000000
C    -6.574000000     0.522000000     1.857000000
H    -7.412000000     1.215000000     1.883000000
C    -5.871000000     0.195000000     3.004000000
O    -6.104000000     0.763000000     4.265000000
C    -5.079000000     1.091000000     5.176000000
C    -4.075000000     1.943000000     4.782000000
H    -4.090000000     2.398000000     3.795000000
C    -4.936000000     0.321000000     6.358000000
H    -5.718000000    -0.374000000     6.652000000
C    -3.766000000     0.426000000     7.115000000
H    -3.578000000    -0.366000000     7.835000000
C    -2.873000000     1.459000000     6.835000000
H    -1.922000000     1.570000000     7.349000000
C    -2.999000000     2.136000000     5.652000000
O    -1.996000000     3.005000000     5.216000000
C    -0.691000000     2.789000000     4.756000000
C     0.126000000     3.840000000     4.456000000
H    -0.182000000     4.879000000     4.530000000
C     1.499000000     3.628000000     4.090000000
O     2.356000000     4.646000000     3.794000000
C     3.612000000     4.611000000     3.161000000
C     3.773000000     5.096000000     1.879000000
H     2.937000000     5.570000000     1.371000000
C     4.737000000     4.120000000     3.880000000
H     4.657000000     3.757000000     4.902000000
C     5.997000000     4.109000000     3.305000000
H     6.781000000     3.607000000     3.867000000
C     6.162000000     4.520000000     1.934000000
H     7.140000000     4.442000000     1.466000000
C     5.052000000     5.011000000     1.264000000
O     5.170000000     5.261000000    -0.067000000
C     4.730000000     4.361000000    -0.983000000
C     4.564000000     4.727000000    -2.317000000
H     4.736000000     5.736000000    -2.683000000
C     4.110000000     3.805000000    -3.260000000
O     3.784000000     4.226000000    -4.518000000
C     2.933000000     3.560000000    -5.385000000
C     1.527000000     3.654000000    -5.180000000
H     1.087000000     4.229000000    -4.369000000
C     3.497000000     2.667000000    -6.282000000
H     4.562000000     2.517000000    -6.442000000
C     2.631000000     1.821000000    -7.032000000
H     3.039000000     1.056000000    -7.687000000
C     1.269000000     1.951000000    -6.920000000
H     0.606000000     1.416000000    -7.595000000
C     0.688000000     2.804000000    -5.972000000
O    -0.661000000     2.858000000    -5.821000000
C    -1.373000000     1.746000000    -5.436000000
C    -2.750000000     1.826000000    -5.460000000
H    -3.208000000     2.720000000    -5.876000000
C    -3.492000000     0.883000000    -4.843000000
O    -4.836000000     1.106000000    -4.832000000
C    -5.613000000     0.346000000    -3.987000000
C    -6.351000000    -0.776000000    -4.390000000
H    -6.340000000    -1.059000000    -5.439000000
C    -7.132000000    -1.513000000    -3.469000000
H    -7.731000000    -2.391000000    -3.696000000
C    -7.350000000    -0.955000000    -2.184000000
H    -8.019000000    -1.389000000    -1.445000000
C    -6.702000000     0.198000000    -1.834000000
C    -5.893000000     0.896000000    -2.727000000
H    -5.355000000     1.781000000    -2.398000000
C    -1.120000000     2.040000000    -1.601000000
H    -0.987000000     2.703000000    -2.452000000
C    -0.256000000     1.011000000    -1.395000000
H     0.558000000     0.906000000    -2.108000000
C    -0.243000000     0.217000000    -0.270000000
H     0.415000000    -0.586000000    -0.252000000
C    -1.153000000     0.534000000     0.763000000
H    -1.249000000    -0.139000000     1.611000000
C    -2.041000000     1.587000000     0.597000000
H    -2.671000000     1.840000000     1.446000000
C    -2.019000000     2.379000000    -0.587000000
C    -2.840000000     3.611000000    -0.772000000
O    -3.471000000     4.043000000     0.163000000
O    -3.065000000     4.048000000    -1.862000000
O     0.516000000     6.112000000    -1.415000000
H     0.555000000     6.831000000    -0.785000000
H     0.451000000     5.324000000    -0.875000000
O    -7.257000000     4.924000000    -3.540000000
H    -7.509000000     4.022000000    -3.339000000
H    -8.080000000     5.412000000    -3.521000000
O    -5.538000000     8.396000000    -0.595000000
H    -5.264000000     8.966000000    -1.313000000
H    -5.346000000     7.511000000    -0.905000000
O    -4.454000000     6.183000000    -1.667000000
H    -4.598000000     6.214000000    -2.613000000
H    -3.976000000     5.367000000    -1.525000000
O     0.134000000     8.881000000     0.364000000
H    -0.555000000     8.788000000    -0.294000000
H    -0.087000000     8.234000000     1.034000000
O    -5.805000000     4.499000000     4.457000000
H    -5.601000000     4.426000000     3.525000000
H    -6.421000000     5.230000000     4.511000000
O    -6.937000000     7.259000000     1.456000000
H    -7.149000000     7.007000000     0.557000000
H    -6.336000000     7.998000000     1.362000000
O    -0.147000000     6.707000000     2.234000000
H    -0.818000000     6.027000000     2.305000000
H    -0.089000000     7.079000000     3.114000000
O    -1.681000000     8.068000000    -2.027000000
H    -1.146000000     7.498000000    -2.581000000
H    -2.440000000     7.533000000    -1.795000000
O    -6.290000000     3.441000000    -0.420000000
H    -5.410000000     3.645000000    -0.102000000
H    -6.298000000     2.487000000    -0.505000000
O     0.623000000     3.842000000     0.321000000
H     0.430000000     4.222000000     1.178000000
H     0.475000000     2.904000000     0.435000000
O    -1.227000000     5.655000000    -3.270000000
H    -0.691000000     5.711000000    -2.480000000
H    -1.916000000     5.028000000    -3.049000000
O    -3.373000000     5.656000000     5.164000000
H    -3.067000000     4.787000000     4.905000000
H    -4.325000000     5.610000000     5.080000000
O    -4.561000000     5.604000000    -6.408000000
H    -4.841000000     5.194000000    -5.589000000
H    -3.606000000     5.538000000    -6.393000000
O    -4.828000000     4.325000000    -4.080000000
H    -5.627000000     4.770000000    -3.798000000
H    -4.424000000     4.021000000    -3.268000000
O    -1.686000000     5.543000000    -5.856000000
H    -1.525000000     5.619000000    -4.916000000
H    -1.407000000     4.655000000    -6.076000000
O    -7.569000000     5.789000000    -0.773000000
H    -7.126000000     4.946000000    -0.680000000
H    -8.461000000     5.564000000    -1.037000000
O    -2.272000000     4.923000000     2.448000000
H    -2.659000000     4.806000000     1.581000000
H    -3.017000000     4.899000000     3.049000000
O    -5.180000000     5.010000000     1.892000000
H    -5.617000000     5.800000000     1.575000000
H    -4.509000000     4.826000000     1.234000000
