215
-1483.64387
C     3.263000000     1.895000000     3.777000000
H     3.926000000     1.502000000     3.010000000
C     2.332000000     1.099000000     4.441000000
C     1.440000000     1.711000000     5.352000000
H     0.567000000     1.130000000     5.641000000
C     2.111000000    -0.334000000     4.010000000
O     3.342000000    -1.059000000     3.662000000
H     1.503000000    -0.281000000     3.095000000
O     1.319000000    -1.194000000     4.912000000
C     0.328000000    -1.916000000     4.305000000
C    -0.967000000    -1.414000000     4.196000000
H    -1.172000000    -0.383000000     4.473000000
C    -1.961000000    -2.185000000     3.571000000
O    -3.190000000    -1.535000000     3.389000000
C    -1.655000000    -3.434000000     2.933000000
C    -2.740000000    -4.251000000     2.228000000
H    -2.462000000    -5.306000000     2.199000000
C    -2.988000000    -3.789000000     0.805000000
C    -2.209000000    -4.457000000    -0.149000000
H    -1.461000000    -5.177000000     0.172000000
H    -3.653000000    -4.219000000     2.827000000
C    -0.318000000    -3.858000000     2.989000000
H    -0.087000000    -4.737000000     2.393000000
C     0.644000000    -3.152000000     3.678000000
C     2.067000000    -3.673000000     3.698000000
H     2.208000000    -4.754000000     3.748000000
H     2.453000000    -3.300000000     4.650000000
C     2.815000000    -3.076000000     2.515000000
C     2.902000000    -3.882000000     1.343000000
H     2.652000000    -4.939000000     1.387000000
C     3.365000000    -1.813000000     2.542000000
C     3.915000000    -1.272000000     1.383000000
H     4.280000000    -0.248000000     1.405000000
C     3.956000000    -2.052000000     0.213000000
O     4.582000000    -1.552000000    -0.897000000
C     3.627000000    -0.956000000    -1.768000000
C     4.095000000     0.418000000    -2.290000000
C     3.649000000     0.992000000    -3.476000000
H     3.027000000     0.381000000    -4.125000000
C     4.853000000     1.198000000    -1.469000000
H     5.177000000     0.755000000    -0.530000000
O     3.466000000    -1.815000000    -2.878000000
H     2.689000000    -0.732000000    -1.240000000
C     3.436000000    -3.344000000     0.182000000
C     3.432000000    -4.191000000    -1.057000000
H     3.465000000    -5.273000000    -0.911000000
H     4.364000000    -4.275000000    -1.620000000
C     2.333000000    -3.815000000    -1.969000000
C     1.124000000    -4.544000000    -1.996000000
H     1.057000000    -5.343000000    -1.262000000
C     2.388000000    -2.657000000    -2.750000000
C     1.294000000    -2.274000000    -3.578000000
H     1.206000000    -1.347000000    -4.138000000
C     0.064000000    -2.963000000    -3.527000000
O    -0.971000000    -2.413000000    -4.206000000
C    -1.853000000    -1.540000000    -3.443000000
C    -2.296000000    -0.323000000    -4.282000000
C    -1.384000000     0.251000000    -5.185000000
H    -0.381000000    -0.159000000    -5.260000000
C    -3.524000000     0.299000000    -4.037000000
H    -4.146000000    -0.206000000    -3.303000000
O    -2.997000000    -2.346000000    -3.078000000
H    -1.387000000    -1.120000000    -2.540000000
C    -0.028000000    -4.088000000    -2.725000000
C    -1.393000000    -4.742000000    -2.493000000
H    -1.244000000    -5.814000000    -2.347000000
H    -1.928000000    -4.667000000    -3.442000000
C    -2.301000000    -4.029000000    -1.498000000
C    -3.105000000    -2.916000000    -1.821000000
C    -3.864000000    -2.267000000    -0.859000000
H    -4.354000000    -1.312000000    -1.027000000
C    -3.826000000    -2.773000000     0.431000000
O    -4.511000000    -2.026000000     1.380000000
C    -3.650000000    -1.087000000     2.052000000
H    -2.772000000    -0.903000000     1.416000000
C    -4.313000000     0.347000000     2.112000000
C    -3.751000000     1.276000000     3.019000000
H    -3.041000000     0.930000000     3.765000000
C    -5.160000000     0.862000000     1.121000000
H    -5.647000000     0.170000000     0.439000000
C    -5.465000000     2.222000000     1.081000000
O    -6.339000000     2.696000000     0.110000000
C    -4.947000000     3.072000000     2.010000000
H    -5.118000000     4.145000000     2.005000000
C    -4.051000000     2.649000000     2.953000000
O    -3.522000000     3.518000000     3.829000000
C    -2.876000000     3.188000000     4.945000000
C    -1.472000000     3.365000000     4.944000000
H    -0.993000000     3.731000000     4.040000000
C    -3.557000000     2.617000000     6.003000000
H    -4.607000000     2.376000000     5.854000000
C    -2.882000000     2.387000000     7.213000000
H    -3.387000000     1.924000000     8.058000000
C    -1.519000000     2.700000000     7.280000000
H    -1.017000000     2.487000000     8.220000000
C    -0.795000000     3.201000000     6.163000000
O     0.516000000     3.636000000     6.257000000
C     1.508000000     3.084000000     5.551000000
C     2.510000000     3.867000000     5.033000000
H     2.589000000     4.927000000     5.262000000
C     3.390000000     3.280000000     4.090000000
O     4.224000000     4.181000000     3.414000000
C     5.200000000     3.639000000     2.549000000
C     5.064000000     3.687000000     1.164000000
H     4.308000000     4.286000000     0.663000000
C     6.270000000     2.884000000     3.089000000
H     6.361000000     2.967000000     4.169000000
C     7.214000000     2.292000000     2.276000000
H     8.098000000     1.805000000     2.681000000
C     7.035000000     2.344000000     0.906000000
H     7.751000000     1.905000000     0.216000000
C     5.980000000     3.067000000     0.335000000
O     6.007000000     3.244000000    -1.015000000
C     5.203000000     2.468000000    -1.844000000
C     4.824000000     2.988000000    -3.048000000
H     5.234000000     3.954000000    -3.331000000
C     3.986000000     2.275000000    -3.864000000
O     3.509000000     2.902000000    -4.994000000
C     2.662000000     2.310000000    -5.952000000
C     1.276000000     2.538000000    -5.972000000
H     0.994000000     3.193000000    -5.152000000
C     3.255000000     1.422000000    -6.852000000
H     4.325000000     1.246000000    -6.925000000
C     2.457000000     0.762000000    -7.783000000
H     2.978000000     0.101000000    -8.471000000
C     1.046000000     0.860000000    -7.774000000
H     0.392000000     0.273000000    -8.414000000
C     0.460000000     1.800000000    -6.865000000
O    -0.878000000     1.995000000    -6.823000000
C    -1.738000000     1.403000000    -5.886000000
C    -2.961000000     1.969000000    -5.673000000
H    -3.316000000     2.880000000    -6.148000000
C    -3.850000000     1.478000000    -4.710000000
O    -4.928000000     2.255000000    -4.396000000
C    -5.811000000     2.008000000    -3.412000000
C    -6.813000000     1.098000000    -3.639000000
H    -6.806000000     0.523000000    -4.562000000
C    -7.631000000     0.611000000    -2.647000000
H    -8.398000000    -0.113000000    -2.906000000
C    -7.508000000     1.104000000    -1.341000000
H    -8.120000000     0.757000000    -0.513000000
C    -6.537000000     2.101000000    -1.096000000
C    -5.780000000     2.547000000    -2.106000000
H    -4.996000000     3.261000000    -1.870000000
C    -0.153000000     1.972000000    -2.182000000
H     0.008000000     2.305000000    -3.204000000
C     0.155000000     0.632000000    -1.789000000
H     0.738000000    -0.051000000    -2.401000000
C    -0.147000000     0.222000000    -0.424000000
H     0.149000000    -0.712000000     0.074000000
C    -0.647000000     1.119000000     0.509000000
H    -0.933000000     0.935000000     1.541000000
C    -0.869000000     2.405000000     0.097000000
H    -1.068000000     3.132000000     0.880000000
C    -0.704000000     2.881000000    -1.205000000
C    -1.098000000     4.315000000    -1.572000000
O    -1.518000000     5.133000000    -0.738000000
O    -0.974000000     4.632000000    -2.758000000
O    -0.743000000     6.942000000    -4.000000000
H    -1.104000000     6.128000000    -3.649000000
H    -0.489000000     7.445000000    -3.226000000
O    -5.750000000     6.051000000    -2.336000000
H    -5.628000000     6.961000000    -2.608000000
H    -6.699000000     5.923000000    -2.348000000
O     1.971000000     4.936000000     1.294000000
H     1.886000000     4.013000000     1.533000000
H     1.809000000     4.956000000     0.351000000
O    -3.352000000     8.141000000    -2.786000000
H    -3.809000000     8.343000000    -3.603000000
H    -2.612000000     7.597000000    -3.054000000
O    -3.965000000     5.949000000    -0.069000000
H    -3.143000000     5.527000000    -0.318000000
H    -4.525000000     5.858000000    -0.840000000
O    -3.895000000     5.214000000    -4.467000000
H    -3.882000000     4.600000000    -3.733000000
H    -4.349000000     5.985000000    -4.126000000
O     2.296000000     4.099000000    -1.220000000
H     2.741000000     3.290000000    -1.472000000
H     2.624000000     4.754000000    -1.836000000
O     0.327000000     4.901000000    -8.124000000
H    -0.023000000     4.575000000    -7.295000000
H    -0.326000000     4.647000000    -8.777000000
O    -6.255000000     4.956000000    -6.064000000
H    -6.395000000     5.838000000    -6.407000000
H    -5.352000000     4.963000000    -5.746000000
O    -3.392000000     8.939000000     0.586000000
H    -3.650000000     8.021000000     0.671000000
H    -2.615000000     9.022000000     1.138000000
O     2.169000000     6.249000000    -4.563000000
H     1.222000000     6.244000000    -4.704000000
H     2.541000000     6.354000000    -5.439000000
O    -2.951000000     6.789000000     2.596000000
H    -2.022000000     6.936000000     2.419000000
H    -3.282000000     6.364000000     1.805000000
O     4.824000000     6.998000000    -0.744000000
H     3.966000000     6.937000000    -1.162000000
H     4.666000000     7.500000000     0.056000000
O     3.547000000     9.307000000    -3.014000000
H     3.320000000    10.074000000    -2.487000000
H     3.041000000     8.593000000    -2.628000000
O     2.290000000     7.185000000    -1.803000000
H     2.399000000     6.775000000    -2.661000000
H     1.345000000     7.168000000    -1.648000000
O    -1.047000000     7.804000000    -6.572000000
H    -1.404000000     7.131000000    -7.151000000
H    -0.841000000     7.339000000    -5.761000000
O    -1.235000000     4.741000000    -5.787000000
H    -1.007000000     4.571000000    -4.873000000
H    -2.134000000     5.068000000    -5.753000000
O    -0.582000000     7.471000000    -1.382000000
H    -0.913000000     6.589000000    -1.209000000
H    -1.167000000     8.047000000    -0.890000000
O    -0.414000000     6.066000000     1.591000000
H    -0.871000000     5.463000000     1.005000000
H     0.514000000     5.868000000     1.461000000
