215
-1451.13501
C    -4.902000000     0.196000000    -1.933000000
H    -4.356000000     0.338000000    -2.862000000
C    -4.677000000     1.020000000    -0.829000000
C    -5.276000000     0.730000000     0.433000000
H    -5.108000000     1.339000000     1.317000000
C    -3.638000000     2.151000000    -1.065000000
O    -3.512000000     2.665000000    -2.464000000
H    -2.708000000     1.652000000    -0.754000000
O    -3.866000000     3.282000000    -0.206000000
C    -2.836000000     3.812000000     0.482000000
C    -2.624000000     3.240000000     1.761000000
H    -3.404000000     2.573000000     2.118000000
C    -1.498000000     3.608000000     2.485000000
O    -1.268000000     3.141000000     3.785000000
C    -0.571000000     4.473000000     1.822000000
C     0.688000000     4.874000000     2.619000000
H     1.083000000     5.744000000     2.089000000
C     1.824000000     3.777000000     2.483000000
C     2.751000000     3.873000000     1.490000000
H     2.767000000     4.751000000     0.850000000
H     0.495000000     5.154000000     3.657000000
C    -0.768000000     5.005000000     0.553000000
H     0.034000000     5.543000000     0.054000000
C    -1.886000000     4.635000000    -0.148000000
C    -2.022000000     5.028000000    -1.646000000
H    -1.550000000     5.991000000    -1.850000000
H    -3.086000000     5.196000000    -1.823000000
C    -1.467000000     3.949000000    -2.518000000
C    -0.120000000     4.116000000    -2.894000000
H     0.521000000     4.923000000    -2.550000000
C    -2.236000000     2.889000000    -2.929000000
C    -1.677000000     1.937000000    -3.716000000
H    -2.249000000     1.057000000    -3.998000000
C    -0.409000000     2.007000000    -4.103000000
O     0.152000000     0.992000000    -4.767000000
C     0.857000000    -0.029000000    -3.986000000
C     0.615000000    -1.473000000    -4.402000000
C     1.605000000    -2.486000000    -4.352000000
H     2.611000000    -2.268000000    -4.002000000
C    -0.665000000    -1.853000000    -4.814000000
H    -1.502000000    -1.164000000    -4.886000000
O     2.233000000     0.249000000    -4.119000000
H     0.545000000     0.130000000    -2.943000000
C     0.427000000     3.106000000    -3.719000000
C     1.887000000     3.155000000    -4.183000000
H     2.236000000     4.190000000    -4.183000000
H     1.996000000     2.691000000    -5.165000000
C     2.721000000     2.405000000    -3.131000000
C     3.412000000     3.110000000    -2.160000000
H     3.271000000     4.180000000    -2.024000000
C     2.873000000     0.973000000    -3.189000000
C     3.782000000     0.303000000    -2.325000000
H     3.892000000    -0.776000000    -2.399000000
C     4.417000000     1.030000000    -1.317000000
O     4.952000000     0.282000000    -0.374000000
C     4.187000000    -0.119000000     0.762000000
C     4.164000000    -1.615000000     0.925000000
C     4.667000000    -2.525000000     0.031000000
H     5.090000000    -2.142000000    -0.895000000
C     3.512000000    -2.200000000     1.990000000
H     3.050000000    -1.580000000     2.754000000
O     4.533000000     0.726000000     1.858000000
H     3.162000000     0.228000000     0.566000000
C     4.157000000     2.431000000    -1.143000000
C     4.675000000     3.048000000     0.133000000
H     4.927000000     4.084000000    -0.105000000
H     5.620000000     2.653000000     0.508000000
C     3.726000000     2.890000000     1.274000000
C     3.773000000     1.799000000     2.124000000
C     2.785000000     1.642000000     3.144000000
H     2.720000000     0.712000000     3.703000000
C     1.917000000     2.678000000     3.328000000
O     0.962000000     2.448000000     4.311000000
C    -0.326000000     2.047000000     3.872000000
H    -0.240000000     1.587000000     2.877000000
C    -0.815000000     0.961000000     4.827000000
C    -2.129000000     0.546000000     4.828000000
H    -2.784000000     1.077000000     4.141000000
C     0.097000000     0.200000000     5.535000000
H     1.162000000     0.412000000     5.499000000
C    -0.307000000    -0.934000000     6.266000000
O     0.612000000    -1.804000000     6.873000000
C    -1.649000000    -1.292000000     6.264000000
H    -2.062000000    -2.213000000     6.666000000
C    -2.615000000    -0.544000000     5.607000000
O    -3.965000000    -0.953000000     5.631000000
C    -4.896000000    -0.263000000     4.949000000
C    -5.379000000    -0.764000000     3.746000000
H    -4.997000000    -1.740000000     3.458000000
C    -5.359000000     0.970000000     5.405000000
H    -5.025000000     1.312000000     6.381000000
C    -6.342000000     1.614000000     4.657000000
H    -6.672000000     2.616000000     4.919000000
C    -6.825000000     1.080000000     3.447000000
H    -7.498000000     1.673000000     2.832000000
C    -6.340000000    -0.124000000     2.980000000
O    -6.651000000    -0.729000000     1.767000000
C    -6.165000000    -0.361000000     0.548000000
C    -6.415000000    -1.179000000    -0.566000000
H    -6.843000000    -2.166000000    -0.407000000
C    -5.711000000    -0.947000000    -1.762000000
O    -5.672000000    -1.932000000    -2.663000000
C    -4.974000000    -1.856000000    -3.865000000
C    -3.884000000    -2.736000000    -4.168000000
H    -3.428000000    -3.283000000    -3.347000000
C    -5.506000000    -1.122000000    -4.884000000
H    -6.462000000    -0.644000000    -4.689000000
C    -4.935000000    -1.131000000    -6.168000000
H    -5.361000000    -0.613000000    -7.024000000
C    -3.867000000    -1.912000000    -6.445000000
H    -3.487000000    -1.883000000    -7.463000000
C    -3.386000000    -2.794000000    -5.444000000
O    -2.252000000    -3.538000000    -5.801000000
C    -1.009000000    -3.202000000    -5.222000000
C    -0.030000000    -4.156000000    -5.076000000
H    -0.219000000    -5.198000000    -5.321000000
C     1.264000000    -3.804000000    -4.705000000
O     2.229000000    -4.765000000    -4.578000000
C     3.491000000    -4.635000000    -4.033000000
C     3.689000000    -4.922000000    -2.640000000
H     2.874000000    -5.238000000    -1.995000000
C     4.617000000    -4.371000000    -4.795000000
H     4.497000000    -4.277000000    -5.871000000
C     5.880000000    -4.337000000    -4.206000000
H     6.713000000    -4.029000000    -4.833000000
C     6.032000000    -4.389000000    -2.795000000
H     6.943000000    -4.241000000    -2.222000000
C     4.942000000    -4.682000000    -1.990000000
O     5.142000000    -4.790000000    -0.640000000
C     4.515000000    -3.885000000     0.222000000
C     4.015000000    -4.406000000     1.371000000
H     3.893000000    -5.474000000     1.536000000
C     3.532000000    -3.538000000     2.255000000
O     2.824000000    -4.075000000     3.291000000
C     2.869000000    -3.638000000     4.610000000
C     4.017000000    -3.760000000     5.403000000
H     4.777000000    -4.456000000     5.059000000
C     4.064000000    -3.098000000     6.606000000
H     4.981000000    -3.200000000     7.181000000
C     2.962000000    -2.424000000     7.163000000
H     2.923000000    -2.085000000     8.195000000
C     1.789000000    -2.323000000     6.448000000
C     1.821000000    -2.956000000     5.215000000
H     0.937000000    -2.878000000     4.586000000
C    -0.017000000    -2.722000000    -1.398000000
H     0.711000000    -3.440000000    -1.767000000
C     0.450000000    -1.426000000    -1.008000000
H     1.500000000    -1.156000000    -1.092000000
C    -0.467000000    -0.567000000    -0.423000000
H    -0.204000000     0.449000000    -0.133000000
C    -1.811000000    -0.897000000    -0.301000000
H    -2.461000000    -0.203000000     0.227000000
C    -2.298000000    -2.164000000    -0.658000000
H    -3.339000000    -2.427000000    -0.492000000
C    -1.365000000    -3.111000000    -1.160000000
C    -1.781000000    -4.561000000    -1.383000000
O    -2.925000000    -4.891000000    -1.183000000
O    -0.934000000    -5.475000000    -1.617000000
O    -3.225000000    -7.521000000    -3.385000000
H    -2.805000000    -7.162000000    -2.603000000
H    -3.250000000    -6.789000000    -4.001000000
O     2.613000000    -7.607000000    -0.631000000
H     2.207000000    -8.056000000     0.110000000
H     2.036000000    -6.864000000    -0.807000000
O    -8.331000000    -3.641000000    -2.232000000
H    -7.377000000    -3.568000000    -2.197000000
H    -8.582000000    -3.127000000    -2.999000000
O     0.125000000    -6.069000000     3.150000000
H     0.349000000    -5.144000000     3.052000000
H    -0.524000000    -6.233000000     2.466000000
O    -2.358000000    -9.686000000     1.800000000
H    -2.381000000    -9.918000000     0.872000000
H    -3.240000000    -9.882000000     2.117000000
O    -5.538000000    -6.101000000    -1.294000000
H    -5.818000000    -5.972000000    -2.201000000
H    -4.680000000    -5.680000000    -1.246000000
O    -1.774000000    -6.517000000     0.928000000
H    -1.866000000    -7.412000000     0.601000000
H    -1.830000000    -5.970000000     0.144000000
O    -4.049000000   -10.341000000    -4.553000000
H    -4.062000000    -9.619000000    -3.925000000
H    -3.358000000   -10.106000000    -5.173000000
O    -0.360000000    -7.961000000    -1.998000000
H    -0.755000000    -7.112000000    -1.799000000
H     0.245000000    -8.120000000    -1.274000000
O     1.224000000    -5.128000000    -0.067000000
H     0.495000000    -5.136000000    -0.687000000
H     0.933000000    -4.550000000     0.638000000
O    -6.806000000    -3.857000000     3.295000000
H    -6.136000000    -3.927000000     2.615000000
H    -7.634000000    -3.841000000     2.815000000
O    -5.847000000    -5.703000000    -4.066000000
H    -5.338000000    -6.181000000    -4.722000000
H    -6.176000000    -4.934000000    -4.531000000
O    -2.387000000    -9.687000000    -1.042000000
H    -3.252000000    -9.375000000    -1.309000000
H    -1.773000000    -9.120000000    -1.509000000
O    -5.009000000    -4.636000000     1.289000000
H    -4.443000000    -4.446000000     0.540000000
H    -5.052000000    -5.591000000     1.320000000
O    -5.240000000    -8.880000000    -0.653000000
H    -5.748000000    -9.475000000    -1.204000000
H    -5.184000000    -8.071000000    -1.161000000
O    -3.501000000    -6.399000000     3.092000000
H    -3.082000000    -5.797000000     3.707000000
H    -2.916000000    -6.414000000     2.335000000
O    -2.626000000    -2.944000000     2.879000000
H    -2.637000000    -3.203000000     3.801000000
H    -3.366000000    -3.409000000     2.490000000
O    -0.595000000    -8.431000000    -4.792000000
H    -0.730000000    -7.926000000    -3.990000000
H     0.263000000    -8.838000000    -4.677000000
O    -0.044000000    -3.427000000     1.822000000
H     0.313000000    -2.625000000     1.440000000
H    -0.896000000    -3.167000000     2.172000000
