215
-1452.58316
C     3.051000000     1.448000000     3.671000000
H     3.686000000     1.196000000     2.825000000
C     2.054000000     0.617000000     4.232000000
C     1.172000000     1.251000000     5.095000000
H     0.331000000     0.745000000     5.562000000
C     1.825000000    -0.809000000     3.822000000
O     3.062000000    -1.489000000     3.538000000
H     1.246000000    -0.656000000     2.899000000
O     0.896000000    -1.607000000     4.618000000
C     0.009000000    -2.372000000     3.908000000
C    -1.269000000    -1.835000000     3.720000000
H    -1.627000000    -0.953000000     4.246000000
C    -2.254000000    -2.501000000     3.043000000
O    -3.510000000    -2.003000000     2.848000000
C    -2.007000000    -3.689000000     2.416000000
C    -2.986000000    -4.391000000     1.462000000
H    -2.815000000    -5.464000000     1.565000000
C    -2.958000000    -3.772000000     0.107000000
C    -2.242000000    -4.326000000    -0.975000000
H    -1.739000000    -5.287000000    -0.897000000
H    -3.957000000    -4.136000000     1.892000000
C    -0.732000000    -4.277000000     2.482000000
H    -0.514000000    -5.195000000     1.942000000
C     0.247000000    -3.590000000     3.257000000
C     1.637000000    -4.032000000     3.191000000
H     1.692000000    -5.121000000     3.130000000
H     2.144000000    -3.842000000     4.139000000
C     2.483000000    -3.445000000     2.134000000
C     2.489000000    -4.006000000     0.860000000
H     1.856000000    -4.867000000     0.661000000
C     3.217000000    -2.247000000     2.391000000
C     4.061000000    -1.688000000     1.379000000
H     4.585000000    -0.752000000     1.555000000
C     4.076000000    -2.301000000     0.104000000
O     4.816000000    -1.609000000    -0.849000000
C     3.952000000    -0.888000000    -1.791000000
C     4.536000000     0.482000000    -2.068000000
C     3.871000000     1.324000000    -2.958000000
H     2.958000000     1.002000000    -3.452000000
C     5.528000000     0.996000000    -1.215000000
H     6.060000000     0.317000000    -0.554000000
O     3.767000000    -1.612000000    -3.026000000
H     2.956000000    -0.924000000    -1.327000000
C     3.306000000    -3.494000000    -0.180000000
C     3.422000000    -4.087000000    -1.568000000
H     3.258000000    -5.157000000    -1.423000000
H     4.391000000    -3.881000000    -2.027000000
C     2.385000000    -3.515000000    -2.436000000
C     1.125000000    -4.031000000    -2.486000000
H     0.914000000    -4.937000000    -1.924000000
C     2.597000000    -2.265000000    -3.116000000
C     1.606000000    -1.704000000    -3.916000000
H     1.744000000    -0.770000000    -4.455000000
C     0.316000000    -2.289000000    -3.979000000
O    -0.677000000    -1.614000000    -4.569000000
C    -1.800000000    -1.019000000    -3.775000000
C    -2.194000000     0.356000000    -4.278000000
C    -1.180000000     1.109000000    -4.904000000
H    -0.173000000     0.704000000    -4.958000000
C    -3.463000000     0.850000000    -4.051000000
H    -4.198000000     0.182000000    -3.608000000
O    -2.837000000    -1.968000000    -3.735000000
H    -1.480000000    -0.775000000    -2.751000000
C     0.107000000    -3.499000000    -3.267000000
C    -1.269000000    -4.228000000    -3.367000000
H    -1.079000000    -5.300000000    -3.277000000
H    -1.769000000    -4.188000000    -4.337000000
C    -2.149000000    -3.717000000    -2.244000000
C    -2.863000000    -2.572000000    -2.541000000
C    -3.717000000    -1.984000000    -1.542000000
H    -4.345000000    -1.129000000    -1.779000000
C    -3.757000000    -2.610000000    -0.225000000
O    -4.514000000    -1.936000000     0.798000000
C    -3.690000000    -1.160000000     1.629000000
H    -2.702000000    -1.104000000     1.149000000
C    -4.291000000     0.173000000     1.889000000
C    -3.908000000     0.922000000     3.034000000
H    -3.118000000     0.620000000     3.717000000
C    -5.217000000     0.708000000     1.013000000
H    -5.326000000     0.239000000     0.039000000
C    -5.809000000     1.900000000     1.326000000
O    -6.635000000     2.638000000     0.462000000
C    -5.458000000     2.552000000     2.495000000
H    -5.895000000     3.533000000     2.664000000
C    -4.479000000     2.156000000     3.349000000
O    -4.018000000     2.964000000     4.380000000
C    -3.179000000     2.579000000     5.351000000
C    -1.899000000     3.094000000     5.299000000
H    -1.606000000     3.736000000     4.472000000
C    -3.610000000     1.842000000     6.511000000
H    -4.592000000     1.378000000     6.551000000
C    -2.628000000     1.509000000     7.454000000
H    -2.806000000     0.829000000     8.284000000
C    -1.273000000     1.901000000     7.344000000
H    -0.531000000     1.549000000     8.056000000
C    -0.968000000     2.753000000     6.291000000
O     0.295000000     3.235000000     6.150000000
C     1.333000000     2.577000000     5.453000000
C     2.264000000     3.396000000     4.814000000
H     2.385000000     4.451000000     5.042000000
C     3.184000000     2.805000000     3.972000000
O     4.201000000     3.493000000     3.333000000
C     5.390000000     2.968000000     2.744000000
C     5.633000000     3.285000000     1.483000000
H     5.024000000     3.983000000     0.914000000
C     6.152000000     2.082000000     3.471000000
H     5.915000000     1.859000000     4.508000000
C     7.310000000     1.508000000     2.913000000
H     7.841000000     0.712000000     3.430000000
C     7.567000000     1.812000000     1.563000000
H     8.460000000     1.388000000     1.112000000
C     6.632000000     2.570000000     0.832000000
O     6.905000000     2.843000000    -0.493000000
C     5.956000000     2.315000000    -1.325000000
C     5.442000000     3.042000000    -2.402000000
H     5.671000000     4.096000000    -2.536000000
C     4.375000000     2.586000000    -3.206000000
O     3.771000000     3.465000000    -4.093000000
C     2.953000000     3.028000000    -5.083000000
C     1.608000000     3.395000000    -5.114000000
H     1.273000000     4.138000000    -4.396000000
C     3.439000000     2.135000000    -6.046000000
H     4.484000000     1.837000000    -6.077000000
C     2.524000000     1.692000000    -7.059000000
H     2.816000000     1.011000000    -7.854000000
C     1.208000000     2.051000000    -7.019000000
H     0.460000000     1.495000000    -7.579000000
C     0.710000000     2.880000000    -6.006000000
O    -0.598000000     3.214000000    -5.862000000
C    -1.564000000     2.472000000    -5.293000000
C    -2.803000000     3.021000000    -4.928000000
H    -3.132000000     4.016000000    -5.216000000
C    -3.713000000     2.188000000    -4.390000000
O    -4.957000000     2.776000000    -4.031000000
C    -5.891000000     2.241000000    -3.108000000
C    -6.950000000     1.413000000    -3.471000000
H    -7.023000000     1.145000000    -4.522000000
C    -7.889000000     1.001000000    -2.556000000
H    -8.641000000     0.232000000    -2.710000000
C    -7.760000000     1.432000000    -1.226000000
H    -8.458000000     1.058000000    -0.481000000
C    -6.760000000     2.283000000    -0.791000000
C    -5.813000000     2.634000000    -1.771000000
H    -4.962000000     3.255000000    -1.499000000
C    -1.215000000     2.581000000    -1.495000000
H    -1.336000000     3.084000000    -2.451000000
C    -0.472000000     1.405000000    -1.396000000
H    -0.028000000     0.910000000    -2.256000000
C    -0.175000000     0.836000000    -0.176000000
H     0.481000000    -0.015000000    -0.065000000
C    -0.640000000     1.467000000     1.000000000
H    -0.432000000     1.187000000     2.030000000
C    -1.479000000     2.540000000     0.887000000
H    -1.839000000     3.022000000     1.792000000
C    -1.810000000     3.130000000    -0.329000000
C    -2.595000000     4.423000000    -0.323000000
O    -3.026000000     4.840000000     0.746000000
O    -2.672000000     5.108000000    -1.340000000
O    -2.051000000     7.798000000    -1.164000000
H    -1.213000000     7.959000000    -0.731000000
H    -2.316000000     6.930000000    -0.857000000
O    -7.646000000     6.061000000     1.674000000
H    -6.875000000     6.015000000     1.109000000
H    -8.033000000     6.916000000     1.482000000
O    -6.587000000     5.910000000    -4.760000000
H    -6.929000000     6.801000000    -4.832000000
H    -5.703000000     6.020000000    -4.409000000
O     1.345000000     3.879000000     0.504000000
H     0.765000000     3.121000000     0.432000000
H     1.022000000     4.492000000    -0.156000000
O    -2.441000000     9.052000000    -3.475000000
H    -2.163000000     8.603000000    -2.676000000
H    -2.564000000     9.962000000    -3.208000000
O    -8.543000000     6.318000000    -1.321000000
H    -7.751000000     6.726000000    -0.970000000
H    -8.701000000     5.569000000    -0.746000000
O    -4.421000000     6.402000000    -2.772000000
H    -3.693000000     6.023000000    -2.279000000
H    -4.166000000     6.304000000    -3.689000000
O    -3.553000000     6.501000000    -5.333000000
H    -3.343000000     7.345000000    -5.732000000
H    -4.041000000     6.031000000    -6.009000000
O     1.050000000     5.908000000    -1.305000000
H     0.533000000     5.920000000    -2.110000000
H     0.966000000     6.794000000    -0.953000000
O     0.176000000     5.150000000     3.355000000
H    -0.539000000     5.458000000     2.798000000
H     0.713000000     4.608000000     2.777000000
O    -5.262000000     9.104000000    -2.012000000
H    -4.519000000     9.511000000    -1.567000000
H    -4.913000000     8.283000000    -2.359000000
O    -3.573000000     9.442000000     0.721000000
H    -3.654000000     9.106000000     1.613000000
H    -3.034000000     8.793000000     0.268000000
O    -3.297000000     9.049000000     3.353000000
H    -2.790000000     9.798000000     3.665000000
H    -3.473000000     8.534000000     4.141000000
O     0.642000000     8.531000000    -0.230000000
H     1.096000000     9.262000000    -0.649000000
H     0.841000000     8.626000000     0.701000000
O    -5.471000000     5.884000000    -0.080000000
H    -5.411000000     6.036000000    -1.023000000
H    -4.620000000     5.516000000     0.158000000
O     0.377000000     6.304000000    -5.787000000
H     0.571000000     7.224000000    -5.609000000
H    -0.227000000     6.048000000    -5.091000000
O    -0.969000000     5.799000000    -3.190000000
H    -1.583000000     5.392000000    -2.578000000
H    -1.526000000     6.271000000    -3.809000000
O    -6.856000000     8.309000000    -0.093000000
H    -6.577000000     8.604000000    -0.960000000
H    -6.059000000     7.967000000     0.311000000
O    -2.294000000     6.431000000     2.965000000
H    -2.753000000     5.892000000     2.321000000
H    -2.652000000     7.310000000     2.840000000
