215
-1468.20629
C     3.110000000     1.630000000     3.329000000
H     3.622000000     1.118000000     2.518000000
C     2.318000000     0.862000000     4.219000000
C     1.702000000     1.430000000     5.338000000
H     0.983000000     0.884000000     5.943000000
C     2.074000000    -0.574000000     3.777000000
O     3.308000000    -1.296000000     3.517000000
H     1.569000000    -0.491000000     2.803000000
O     1.273000000    -1.296000000     4.700000000
C     0.252000000    -2.125000000     4.135000000
C    -1.013000000    -1.614000000     4.166000000
H    -1.257000000    -0.661000000     4.627000000
C    -2.060000000    -2.208000000     3.477000000
O    -3.248000000    -1.638000000     3.366000000
C    -1.736000000    -3.370000000     2.786000000
C    -2.924000000    -4.122000000     2.127000000
H    -2.647000000    -5.178000000     2.141000000
C    -3.068000000    -3.677000000     0.678000000
C    -2.310000000    -4.313000000    -0.330000000
H    -1.803000000    -5.237000000    -0.063000000
H    -3.834000000    -4.013000000     2.721000000
C    -0.449000000    -3.918000000     2.887000000
H    -0.208000000    -4.844000000     2.370000000
C     0.583000000    -3.300000000     3.522000000
C     1.971000000    -3.849000000     3.456000000
H     1.920000000    -4.938000000     3.399000000
H     2.526000000    -3.569000000     4.354000000
C     2.721000000    -3.322000000     2.313000000
C     2.764000000    -4.040000000     1.058000000
H     2.294000000    -5.013000000     0.934000000
C     3.294000000    -2.038000000     2.332000000
C     3.990000000    -1.598000000     1.220000000
H     4.558000000    -0.671000000     1.199000000
C     3.942000000    -2.327000000    -0.036000000
O     4.502000000    -1.718000000    -1.145000000
C     3.543000000    -1.062000000    -1.995000000
C     4.089000000     0.238000000    -2.422000000
C     3.569000000     0.783000000    -3.648000000
H     2.803000000     0.215000000    -4.171000000
C     4.947000000     1.020000000    -1.666000000
H     5.381000000     0.562000000    -0.781000000
O     3.263000000    -1.944000000    -3.123000000
H     2.644000000    -0.919000000    -1.377000000
C     3.378000000    -3.570000000    -0.088000000
C     3.154000000    -4.331000000    -1.421000000
H     3.077000000    -5.403000000    -1.225000000
H     4.003000000    -4.148000000    -2.083000000
C     1.989000000    -3.699000000    -2.238000000
C     0.794000000    -4.427000000    -2.190000000
H     0.693000000    -5.227000000    -1.461000000
C     2.085000000    -2.601000000    -3.110000000
C     0.983000000    -2.213000000    -3.876000000
H     1.035000000    -1.373000000    -4.563000000
C    -0.183000000    -2.968000000    -3.813000000
O    -1.288000000    -2.452000000    -4.424000000
C    -2.215000000    -1.638000000    -3.663000000
C    -2.455000000    -0.186000000    -4.243000000
C    -1.805000000     0.267000000    -5.380000000
H    -1.114000000    -0.413000000    -5.872000000
C    -3.397000000     0.596000000    -3.580000000
H    -3.840000000     0.312000000    -2.629000000
O    -3.351000000    -2.385000000    -3.241000000
H    -1.670000000    -1.298000000    -2.770000000
C    -0.269000000    -4.057000000    -2.972000000
C    -1.624000000    -4.590000000    -2.706000000
H    -1.586000000    -5.614000000    -2.328000000
H    -2.169000000    -4.612000000    -3.651000000
C    -2.458000000    -3.862000000    -1.649000000
C    -3.253000000    -2.802000000    -1.973000000
C    -4.021000000    -2.204000000    -1.014000000
H    -4.658000000    -1.354000000    -1.244000000
C    -3.935000000    -2.662000000     0.345000000
O    -4.571000000    -1.845000000     1.295000000
C    -3.594000000    -1.015000000     2.085000000
H    -2.653000000    -0.872000000     1.534000000
C    -3.983000000     0.374000000     2.324000000
C    -3.262000000     1.218000000     3.227000000
H    -2.366000000     0.808000000     3.685000000
C    -5.032000000     0.901000000     1.528000000
H    -5.602000000     0.402000000     0.749000000
C    -5.386000000     2.229000000     1.748000000
O    -6.483000000     2.695000000     0.978000000
C    -4.694000000     3.073000000     2.655000000
H    -4.866000000     4.144000000     2.720000000
C    -3.621000000     2.560000000     3.345000000
O    -2.863000000     3.541000000     4.006000000
C    -2.195000000     3.484000000     5.255000000
C    -0.827000000     3.422000000     5.284000000
H    -0.323000000     3.420000000     4.321000000
C    -2.924000000     3.200000000     6.422000000
H    -3.975000000     2.943000000     6.315000000
C    -2.261000000     3.071000000     7.692000000
H    -2.781000000     2.753000000     8.592000000
C    -0.865000000     3.125000000     7.701000000
H    -0.339000000     3.016000000     8.646000000
C    -0.158000000     3.272000000     6.522000000
O     1.192000000     3.314000000     6.578000000
C     1.924000000     2.760000000     5.602000000
C     2.728000000     3.537000000     4.740000000
H     2.849000000     4.600000000     4.928000000
C     3.373000000     2.949000000     3.640000000
O     4.142000000     3.740000000     2.811000000
C     5.198000000     3.252000000     2.086000000
C     5.230000000     3.453000000     0.692000000
H     4.482000000     3.989000000     0.113000000
C     6.271000000     2.648000000     2.738000000
H     6.175000000     2.600000000     3.820000000
C     7.327000000     2.090000000     1.988000000
H     8.161000000     1.519000000     2.387000000
C     7.267000000     2.183000000     0.611000000
H     7.956000000     1.596000000     0.009000000
C     6.255000000     2.884000000    -0.043000000
O     6.316000000     2.960000000    -1.380000000
C     5.376000000     2.277000000    -2.117000000
C     4.862000000     2.863000000    -3.290000000
H     5.268000000     3.814000000    -3.624000000
C     3.977000000     2.072000000    -4.089000000
O     3.540000000     2.714000000    -5.204000000
C     2.574000000     2.042000000    -5.961000000
C     1.256000000     2.519000000    -6.002000000
H     1.017000000     3.330000000    -5.318000000
C     3.005000000     1.022000000    -6.862000000
H     4.060000000     0.766000000    -6.916000000
C     1.993000000     0.450000000    -7.635000000
H     2.264000000    -0.396000000    -8.262000000
C     0.627000000     0.844000000    -7.510000000
H    -0.166000000     0.280000000    -7.994000000
C     0.263000000     1.883000000    -6.751000000
O    -1.066000000     2.275000000    -6.629000000
C    -1.849000000     1.644000000    -5.685000000
C    -2.846000000     2.392000000    -5.069000000
H    -2.919000000     3.455000000    -5.284000000
C    -3.663000000     1.906000000    -4.011000000
O    -4.663000000     2.705000000    -3.440000000
C    -5.674000000     2.347000000    -2.588000000
C    -6.917000000     1.930000000    -3.055000000
H    -7.020000000     1.702000000    -4.112000000
C    -7.909000000     1.567000000    -2.153000000
H    -8.763000000     0.974000000    -2.468000000
C    -7.736000000     1.909000000    -0.826000000
H    -8.486000000     1.667000000    -0.077000000
C    -6.527000000     2.505000000    -0.408000000
C    -5.458000000     2.662000000    -1.254000000
H    -4.478000000     2.984000000    -0.912000000
C     0.130000000     1.908000000    -2.271000000
H     0.741000000     2.154000000    -3.136000000
C     0.301000000     0.671000000    -1.684000000
H     0.890000000    -0.036000000    -2.263000000
C    -0.406000000     0.268000000    -0.560000000
H    -0.160000000    -0.655000000    -0.106000000
C    -1.279000000     1.133000000     0.025000000
H    -1.671000000     0.884000000     1.008000000
C    -1.487000000     2.401000000    -0.497000000
H    -2.175000000     3.056000000     0.031000000
C    -0.862000000     2.734000000    -1.742000000
C    -1.264000000     4.027000000    -2.455000000
O    -2.130000000     4.792000000    -2.119000000
O    -0.740000000     4.294000000    -3.539000000
O    -1.356000000     7.171000000    -3.343000000
H    -1.684000000     6.278000000    -3.240000000
H    -0.739000000     7.284000000    -2.619000000
O    -4.006000000     8.584000000    -1.722000000
H    -3.754000000     8.300000000    -2.601000000
H    -3.630000000     9.460000000    -1.636000000
O     0.749000000     3.805000000     1.375000000
H     0.699000000     2.863000000     1.211000000
H     1.311000000     4.140000000     0.677000000
O    -2.677000000     9.291000000    -4.153000000
H    -2.426000000     9.262000000    -5.077000000
H    -2.331000000     8.478000000    -3.785000000
O    -1.482000000     4.599000000    -8.853000000
H    -1.672000000     4.316000000    -7.958000000
H    -1.961000000     3.981000000    -9.406000000
O    -4.030000000     5.915000000    -0.738000000
H    -3.360000000     5.468000000    -1.255000000
H    -3.760000000     6.833000000    -0.739000000
O    -3.325000000     7.070000000    -6.195000000
H    -3.704000000     6.644000000    -5.427000000
H    -3.876000000     6.786000000    -6.924000000
O     2.149000000     4.505000000    -1.089000000
H     1.804000000     4.757000000    -1.945000000
H     2.412000000     5.332000000    -0.684000000
O    -6.729000000     5.545000000     0.382000000
H    -6.565000000     4.777000000     0.929000000
H    -5.877000000     5.752000000    -0.003000000
O     0.205000000     6.044000000     3.439000000
H     0.164000000     5.425000000     2.710000000
H    -0.554000000     5.826000000     3.980000000
O    -5.377000000     4.057000000    -6.072000000
H    -5.474000000     3.111000000    -6.179000000
H    -6.003000000     4.285000000    -5.385000000
O    -4.671000000     6.266000000    -4.106000000
H    -5.569000000     6.232000000    -3.778000000
H    -4.228000000     5.539000000    -3.670000000
O     1.771000000     5.378000000    -4.016000000
H     1.446000000     6.274000000    -4.104000000
H     0.981000000     4.845000000    -3.924000000
O    -2.714000000     7.852000000     1.864000000
H    -2.029000000     8.508000000     1.733000000
H    -2.302000000     7.024000000     1.619000000
O     2.531000000     7.049000000    -0.531000000
H     1.906000000     7.577000000    -1.027000000
H     2.348000000     7.258000000     0.385000000
O     0.410000000     8.646000000    -1.518000000
H     0.587000000     9.207000000    -0.763000000
H     0.192000000     9.256000000    -2.223000000
O     0.613000000     7.775000000    -5.314000000
H     0.246000000     7.141000000    -5.930000000
H    -0.124000000     8.019000000    -4.755000000
O    -1.027000000     5.406000000    -6.075000000
H    -1.102000000     4.708000000    -5.424000000
H    -1.753000000     5.997000000    -5.876000000
O    -1.260000000     5.803000000     0.496000000
H    -1.676000000     5.832000000    -0.365000000
H    -0.978000000     4.893000000     0.595000000
