215
-1457.94796
C     2.751000000     0.577000000     4.868000000
H     3.538000000     0.084000000     4.303000000
C     1.541000000    -0.071000000     4.815000000
C     0.444000000     0.575000000     5.383000000
H    -0.529000000     0.166000000     5.124000000
C     1.372000000    -1.332000000     3.955000000
O     2.679000000    -2.102000000     3.804000000
H     1.006000000    -0.991000000     2.976000000
O     0.457000000    -2.254000000     4.607000000
C    -0.410000000    -2.927000000     3.731000000
C    -1.672000000    -2.252000000     3.555000000
H    -1.959000000    -1.371000000     4.125000000
C    -2.614000000    -2.799000000     2.656000000
O    -3.735000000    -2.051000000     2.470000000
C    -2.243000000    -3.877000000     1.798000000
C    -3.131000000    -4.453000000     0.728000000
H    -2.808000000    -5.456000000     0.442000000
C    -2.940000000    -3.632000000    -0.589000000
C    -2.097000000    -4.106000000    -1.657000000
H    -1.563000000    -5.047000000    -1.554000000
H    -4.206000000    -4.364000000     0.899000000
C    -0.974000000    -4.480000000     2.004000000
H    -0.703000000    -5.342000000     1.399000000
C    -0.046000000    -4.001000000     2.938000000
C     1.416000000    -4.587000000     3.018000000
H     1.448000000    -5.656000000     2.802000000
H     1.775000000    -4.567000000     4.049000000
C     2.361000000    -3.754000000     2.115000000
C     2.517000000    -4.186000000     0.806000000
H     2.041000000    -5.121000000     0.520000000
C     2.972000000    -2.548000000     2.521000000
C     3.844000000    -1.903000000     1.682000000
H     4.249000000    -0.959000000     2.035000000
C     3.867000000    -2.250000000     0.311000000
O     4.577000000    -1.404000000    -0.531000000
C     3.807000000    -0.636000000    -1.468000000
C     4.452000000     0.719000000    -1.570000000
C     4.516000000     1.432000000    -2.766000000
H     4.362000000     0.902000000    -3.702000000
C     4.492000000     1.373000000    -0.348000000
H     4.303000000     0.787000000     0.548000000
O     3.965000000    -1.346000000    -2.798000000
H     2.725000000    -0.561000000    -1.287000000
C     3.252000000    -3.421000000    -0.109000000
C     3.499000000    -3.969000000    -1.472000000
H     3.581000000    -5.058000000    -1.494000000
H     4.517000000    -3.736000000    -1.792000000
C     2.531000000    -3.418000000    -2.494000000
C     1.320000000    -4.049000000    -2.739000000
H     1.015000000    -4.986000000    -2.280000000
C     2.839000000    -2.123000000    -3.027000000
C     1.923000000    -1.562000000    -3.890000000
H     2.192000000    -0.553000000    -4.191000000
C     0.691000000    -2.123000000    -4.158000000
O    -0.167000000    -1.236000000    -4.862000000
C    -1.200000000    -0.553000000    -4.128000000
C    -1.607000000     0.807000000    -4.771000000
C    -0.559000000     1.666000000    -5.058000000
H     0.447000000     1.300000000    -4.873000000
C    -2.943000000     1.240000000    -4.737000000
H    -3.783000000     0.638000000    -4.398000000
O    -2.403000000    -1.392000000    -4.114000000
H    -0.922000000    -0.405000000    -3.074000000
C     0.398000000    -3.415000000    -3.634000000
C    -0.953000000    -3.906000000    -3.894000000
H    -0.937000000    -4.997000000    -3.903000000
H    -1.352000000    -3.645000000    -4.876000000
C    -1.825000000    -3.328000000    -2.832000000
C    -2.561000000    -2.150000000    -2.956000000
C    -3.435000000    -1.749000000    -1.936000000
H    -4.050000000    -0.854000000    -1.968000000
C    -3.579000000    -2.422000000    -0.751000000
O    -4.427000000    -1.868000000     0.136000000
C    -3.754000000    -1.254000000     1.281000000
H    -2.737000000    -1.118000000     0.884000000
C    -4.265000000     0.186000000     1.485000000
C    -4.169000000     0.763000000     2.708000000
H    -3.854000000     0.115000000     3.522000000
C    -4.725000000     0.937000000     0.442000000
H    -4.805000000     0.475000000    -0.539000000
C    -5.236000000     2.236000000     0.664000000
O    -5.592000000     3.014000000    -0.381000000
C    -5.169000000     2.815000000     1.926000000
H    -5.625000000     3.792000000     2.066000000
C    -4.661000000     2.036000000     2.993000000
O    -4.473000000     2.652000000     4.293000000
C    -3.778000000     2.065000000     5.307000000
C    -2.442000000     2.370000000     5.393000000
H    -2.045000000     3.116000000     4.709000000
C    -4.398000000     1.171000000     6.181000000
H    -5.473000000     1.015000000     6.212000000
C    -3.657000000     0.506000000     7.096000000
H    -4.092000000    -0.212000000     7.787000000
C    -2.288000000     0.875000000     7.265000000
H    -1.677000000     0.417000000     8.039000000
C    -1.744000000     1.917000000     6.525000000
O    -0.414000000     2.298000000     6.840000000
C     0.585000000     1.776000000     6.095000000
C     1.850000000     2.360000000     6.154000000
H     1.937000000     3.324000000     6.647000000
C     2.907000000     1.764000000     5.531000000
O     4.102000000     2.383000000     5.577000000
C     4.927000000     2.410000000     4.466000000
C     4.437000000     2.772000000     3.222000000
H     3.409000000     3.119000000     3.156000000
C     6.277000000     2.217000000     4.619000000
H     6.683000000     2.074000000     5.617000000
C     7.152000000     2.288000000     3.557000000
H     8.196000000     2.149000000     3.827000000
C     6.639000000     2.586000000     2.232000000
H     7.278000000     2.745000000     1.367000000
C     5.270000000     2.748000000     2.077000000
O     4.791000000     3.330000000     0.924000000
C     4.785000000     2.702000000    -0.294000000
C     4.830000000     3.425000000    -1.491000000
H     5.026000000     4.494000000    -1.486000000
C     4.701000000     2.788000000    -2.747000000
O     4.671000000     3.462000000    -3.984000000
C     3.777000000     3.199000000    -4.915000000
C     2.529000000     3.776000000    -4.916000000
H     2.264000000     4.360000000    -4.039000000
C     4.113000000     2.379000000    -5.990000000
H     5.137000000     2.015000000    -6.013000000
C     3.129000000     2.078000000    -6.946000000
H     3.226000000     1.195000000    -7.573000000
C     1.845000000     2.630000000    -6.885000000
H     1.033000000     2.361000000    -7.555000000
C     1.523000000     3.574000000    -5.915000000
O     0.225000000     3.957000000    -5.637000000
C    -0.786000000     3.024000000    -5.414000000
C    -2.098000000     3.403000000    -5.485000000
H    -2.412000000     4.398000000    -5.791000000
C    -3.186000000     2.601000000    -5.023000000
O    -4.506000000     3.004000000    -4.997000000
C    -5.332000000     2.625000000    -3.928000000
C    -6.371000000     1.751000000    -4.171000000
H    -6.604000000     1.427000000    -5.182000000
C    -7.150000000     1.214000000    -3.117000000
H    -7.986000000     0.522000000    -3.191000000
C    -6.919000000     1.794000000    -1.831000000
H    -7.474000000     1.543000000    -0.931000000
C    -5.760000000     2.558000000    -1.605000000
C    -4.923000000     2.969000000    -2.651000000
H    -4.088000000     3.633000000    -2.441000000
C    -0.390000000     2.458000000    -1.624000000
H    -0.246000000     2.950000000    -2.583000000
C     0.091000000     1.182000000    -1.552000000
H     0.635000000     0.815000000    -2.419000000
C    -0.129000000     0.416000000    -0.406000000
H     0.224000000    -0.659000000    -0.258000000
C    -0.828000000     0.924000000     0.698000000
H    -1.036000000     0.255000000     1.528000000
C    -1.260000000     2.213000000     0.632000000
H    -1.820000000     2.577000000     1.490000000
C    -1.056000000     3.029000000    -0.540000000
C    -1.537000000     4.498000000    -0.620000000
O    -1.909000000     5.104000000     0.382000000
O    -1.690000000     5.099000000    -1.661000000
O     2.769000000     5.945000000    -1.373000000
H     2.278000000     6.327000000    -0.646000000
H     2.512000000     5.023000000    -1.377000000
O    -5.379000000     6.555000000    -5.126000000
H    -5.800000000     7.258000000    -4.632000000
H    -4.603000000     6.331000000    -4.611000000
O    -0.463000000     7.276000000    -2.707000000
H     0.352000000     6.815000000    -2.511000000
H    -1.151000000     6.640000000    -2.508000000
O    -3.720000000     6.431000000    -3.126000000
H    -3.080000000     5.747000000    -2.932000000
H    -3.593000000     7.081000000    -2.435000000
O     0.965000000     7.245000000     0.214000000
H     0.123000000     7.146000000     0.658000000
H     1.391000000     7.973000000     0.667000000
O     0.689000000     6.302000000     4.801000000
H     0.915000000     5.947000000     5.661000000
H    -0.226000000     6.051000000     4.672000000
O    -1.154000000     4.843000000     3.054000000
H    -1.938000000     4.946000000     3.594000000
H    -1.483000000     4.814000000     2.156000000
O     2.472000000     5.316000000     2.826000000
H     1.874000000     4.684000000     2.428000000
H     1.918000000     5.837000000     3.407000000
O    -4.070000000     6.373000000     0.146000000
H    -3.443000000     5.668000000     0.309000000
H    -3.702000000     6.856000000    -0.593000000
O    -4.020000000     8.708000000     1.696000000
H    -4.029000000     7.920000000     1.153000000
H    -4.765000000     8.601000000     2.287000000
O    -6.921000000     5.827000000     0.024000000
H    -6.828000000     5.425000000    -0.841000000
H    -6.022000000     5.969000000     0.320000000
O    -3.337000000     8.539000000    -1.723000000
H    -4.195000000     8.939000000    -1.869000000
H    -2.724000000     9.274000000    -1.739000000
O     0.716000000     3.006000000     2.514000000
H     0.276000000     2.506000000     1.826000000
H     0.037000000     3.585000000     2.859000000
O    -0.675000000     9.471000000     3.042000000
H    -1.057000000     8.603000000     2.910000000
H    -1.336000000     9.949000000     3.544000000
O    -1.531000000     7.565000000     1.303000000
H    -2.371000000     8.010000000     1.191000000
H    -1.584000000     6.804000000     0.725000000
O     2.598000000     7.262000000    -3.665000000
H     3.417000000     7.361000000    -4.149000000
H     2.834000000     6.739000000    -2.899000000
O    -1.143000000     9.948000000    -2.018000000
H    -0.939000000     9.039000000    -2.241000000
H    -0.312000000    10.313000000    -1.714000000
O    -2.741000000     5.957000000     4.824000000
H    -3.460000000     5.529000000     5.289000000
H    -3.054000000     6.848000000     4.667000000
O     0.807000000     8.637000000    -5.107000000
H     0.067000000     8.129000000    -4.776000000
H     1.558000000     8.322000000    -4.605000000
