215
-1449.22578
C    -5.147000000     0.092000000    -2.385000000
H    -4.758000000     0.409000000    -3.349000000
C    -4.822000000     0.945000000    -1.285000000
C    -5.443000000     0.705000000    -0.052000000
H    -5.319000000     1.454000000     0.725000000
C    -3.762000000     2.087000000    -1.465000000
O    -3.553000000     2.663000000    -2.835000000
H    -2.791000000     1.605000000    -1.277000000
O    -3.985000000     3.064000000    -0.447000000
C    -2.937000000     3.623000000     0.305000000
C    -2.798000000     3.102000000     1.596000000
H    -3.571000000     2.418000000     1.937000000
C    -1.645000000     3.426000000     2.343000000
O    -1.465000000     2.825000000     3.574000000
C    -0.765000000     4.359000000     1.857000000
C     0.413000000     4.802000000     2.783000000
H     0.812000000     5.795000000     2.568000000
C     1.616000000     3.811000000     2.710000000
C     2.621000000     3.990000000     1.686000000
H     2.508000000     4.875000000     1.065000000
H    -0.005000000     4.735000000     3.789000000
C    -0.854000000     4.763000000     0.516000000
H    -0.101000000     5.461000000     0.160000000
C    -1.919000000     4.408000000    -0.303000000
C    -2.071000000     5.001000000    -1.700000000
H    -1.620000000     5.995000000    -1.731000000
H    -3.141000000     5.155000000    -1.854000000
C    -1.449000000     3.968000000    -2.652000000
C    -0.070000000     4.014000000    -3.047000000
H     0.382000000     4.995000000    -2.927000000
C    -2.212000000     2.916000000    -3.167000000
C    -1.574000000     1.843000000    -3.925000000
H    -2.140000000     0.962000000    -4.216000000
C    -0.248000000     1.968000000    -4.232000000
O     0.352000000     0.918000000    -4.941000000
C     1.262000000     0.089000000    -4.251000000
C     0.926000000    -1.436000000    -4.375000000
C     1.970000000    -2.429000000    -4.276000000
H     3.004000000    -2.096000000    -4.233000000
C    -0.378000000    -1.896000000    -4.498000000
H    -1.145000000    -1.129000000    -4.558000000
O     2.633000000     0.525000000    -4.436000000
H     1.036000000     0.281000000    -3.192000000
C     0.548000000     3.056000000    -3.799000000
C     2.065000000     3.257000000    -4.057000000
H     2.178000000     4.334000000    -3.915000000
H     2.291000000     3.136000000    -5.119000000
C     2.960000000     2.487000000    -3.110000000
C     3.473000000     3.177000000    -1.975000000
H     3.137000000     4.208000000    -1.893000000
C     3.221000000     1.142000000    -3.322000000
C     4.049000000     0.435000000    -2.396000000
H     4.326000000    -0.593000000    -2.612000000
C     4.383000000     1.077000000    -1.212000000
O     5.007000000     0.306000000    -0.239000000
C     4.097000000    -0.121000000     0.766000000
C     4.333000000    -1.550000000     1.148000000
C     5.005000000    -2.370000000     0.239000000
H     5.366000000    -1.904000000    -0.674000000
C     3.897000000    -2.057000000     2.312000000
H     3.473000000    -1.415000000     3.081000000
O     4.356000000     0.750000000     1.887000000
H     3.071000000    -0.028000000     0.379000000
C     4.126000000     2.490000000    -0.986000000
C     4.573000000     3.187000000     0.321000000
H     4.648000000     4.263000000     0.150000000
H     5.518000000     2.735000000     0.628000000
C     3.496000000     2.956000000     1.342000000
C     3.487000000     1.783000000     2.122000000
C     2.575000000     1.621000000     3.171000000
H     2.520000000     0.672000000     3.698000000
C     1.670000000     2.643000000     3.479000000
O     0.742000000     2.262000000     4.351000000
C    -0.527000000     1.720000000     3.721000000
H    -0.455000000     1.232000000     2.738000000
C    -1.094000000     0.637000000     4.577000000
C    -2.433000000     0.426000000     4.693000000
H    -3.150000000     1.076000000     4.199000000
C    -0.264000000    -0.239000000     5.215000000
H     0.820000000    -0.166000000     5.167000000
C    -0.678000000    -1.287000000     5.980000000
O     0.140000000    -2.185000000     6.576000000
C    -2.045000000    -1.464000000     6.108000000
H    -2.386000000    -2.365000000     6.610000000
C    -2.894000000    -0.632000000     5.445000000
O    -4.298000000    -0.754000000     5.630000000
C    -5.254000000    -0.282000000     4.722000000
C    -5.471000000    -0.917000000     3.500000000
H    -4.968000000    -1.867000000     3.339000000
C    -5.734000000     1.004000000     4.996000000
H    -5.333000000     1.603000000     5.810000000
C    -6.615000000     1.586000000     4.166000000
H    -7.110000000     2.513000000     4.443000000
C    -6.937000000     0.947000000     3.034000000
H    -7.578000000     1.408000000     2.288000000
C    -6.364000000    -0.282000000     2.638000000
O    -6.720000000    -0.766000000     1.441000000
C    -6.287000000    -0.347000000     0.194000000
C    -6.629000000    -1.100000000    -0.961000000
H    -7.298000000    -1.943000000    -0.808000000
C    -6.046000000    -0.932000000    -2.170000000
O    -6.259000000    -1.875000000    -3.180000000
C    -5.296000000    -2.163000000    -4.147000000
C    -4.086000000    -2.761000000    -3.797000000
H    -3.831000000    -2.913000000    -2.752000000
C    -5.538000000    -1.826000000    -5.501000000
H    -6.477000000    -1.312000000    -5.686000000
C    -4.666000000    -2.166000000    -6.509000000
H    -4.888000000    -2.167000000    -7.573000000
C    -3.473000000    -2.759000000    -6.124000000
H    -2.730000000    -2.993000000    -6.882000000
C    -3.158000000    -3.015000000    -4.846000000
O    -2.017000000    -3.757000000    -4.697000000
C    -0.704000000    -3.288000000    -4.506000000
C     0.324000000    -4.188000000    -4.274000000
H     0.059000000    -5.221000000    -4.065000000
C     1.638000000    -3.769000000    -4.138000000
O     2.538000000    -4.770000000    -4.174000000
C     3.830000000    -4.561000000    -3.665000000
C     4.106000000    -4.756000000    -2.378000000
H     3.383000000    -5.110000000    -1.648000000
C     4.865000000    -4.017000000    -4.460000000
H     4.658000000    -3.886000000    -5.520000000
C     6.169000000    -3.794000000    -3.932000000
H     6.944000000    -3.311000000    -4.522000000
C     6.376000000    -3.888000000    -2.557000000
H     7.278000000    -3.501000000    -2.091000000
C     5.323000000    -4.405000000    -1.787000000
O     5.544000000    -4.651000000    -0.476000000
C     4.941000000    -3.758000000     0.416000000
C     4.398000000    -4.288000000     1.574000000
H     4.461000000    -5.364000000     1.721000000
C     3.991000000    -3.442000000     2.613000000
O     3.531000000    -4.069000000     3.808000000
C     3.212000000    -3.387000000     4.967000000
C     4.190000000    -2.917000000     5.844000000
H     5.234000000    -3.193000000     5.718000000
C     3.801000000    -2.181000000     6.985000000
H     4.533000000    -1.871000000     7.727000000
C     2.447000000    -1.867000000     7.228000000
H     2.050000000    -1.391000000     8.121000000
C     1.482000000    -2.341000000     6.331000000
C     1.862000000    -3.150000000     5.202000000
H     1.075000000    -3.638000000     4.634000000
C     0.209000000    -2.607000000    -1.260000000
H     1.013000000    -3.290000000    -1.524000000
C     0.627000000    -1.280000000    -0.939000000
H     1.679000000    -1.099000000    -1.142000000
C    -0.303000000    -0.340000000    -0.428000000
H    -0.008000000     0.670000000    -0.073000000
C    -1.578000000    -0.707000000    -0.202000000
H    -2.248000000    -0.052000000     0.349000000
C    -1.913000000    -2.067000000    -0.368000000
H    -2.916000000    -2.346000000    -0.055000000
C    -1.072000000    -3.024000000    -0.949000000
C    -1.444000000    -4.508000000    -0.962000000
O    -2.594000000    -4.902000000    -0.613000000
O    -0.542000000    -5.293000000    -1.144000000
O    -2.380000000    -9.233000000    -4.000000000
H    -2.097000000    -8.624000000    -3.318000000
H    -3.269000000    -9.481000000    -3.746000000
O     2.666000000    -7.772000000     0.489000000
H     2.301000000    -7.595000000    -0.378000000
H     2.453000000    -6.993000000     1.002000000
O    -5.132000000    -4.066000000    -0.241000000
H    -4.262000000    -4.251000000    -0.596000000
H    -5.732000000    -4.275000000    -0.958000000
O     1.450000000    -6.997000000     3.386000000
H     1.007000000    -6.565000000     4.116000000
H     1.330000000    -6.401000000     2.646000000
O    -6.433000000    -5.205000000    -2.768000000
H    -6.300000000    -5.305000000    -3.710000000
H    -7.383000000    -5.152000000    -2.664000000
O    -1.956000000    -7.511000000    -1.975000000
H    -2.730000000    -7.447000000    -1.416000000
H    -1.500000000    -6.679000000    -1.849000000
O    -1.281000000    -7.481000000     1.042000000
H    -0.586000000    -8.071000000     0.750000000
H    -1.065000000    -6.640000000     0.640000000
O    -2.395000000    -6.060000000    -6.493000000
H    -2.708000000    -5.635000000    -5.694000000
H    -1.491000000    -5.760000000    -6.586000000
O     1.519000000    -6.932000000    -1.702000000
H     0.705000000    -6.437000000    -1.606000000
H     1.900000000    -6.610000000    -2.518000000
O    -6.694000000    -3.666000000     1.989000000
H    -6.212000000    -3.885000000     1.191000000
H    -6.710000000    -2.709000000     2.004000000
O     1.197000000    -5.264000000     1.333000000
H     0.548000000    -5.358000000     0.635000000
H     1.211000000    -4.325000000     1.521000000
O     0.067000000   -10.891000000    -1.807000000
H    -0.663000000   -11.160000000    -1.249000000
H    -0.117000000    -9.976000000    -2.017000000
O    -4.800000000    -5.949000000     4.456000000
H    -4.516000000    -5.455000000     3.688000000
H    -5.551000000    -5.460000000     4.792000000
O    -3.650000000    -9.258000000     0.628000000
H    -4.334000000    -8.649000000     0.352000000
H    -2.851000000    -8.731000000     0.643000000
O    -3.614000000    -5.186000000     2.100000000
H    -4.040000000    -6.039000000     2.020000000
H    -3.548000000    -4.866000000     1.200000000
O    -4.617000000    -7.038000000    -0.582000000
H    -5.169000000    -7.022000000    -1.364000000
H    -4.130000000    -6.215000000    -0.616000000
O    -3.136000000    -8.166000000     3.569000000
H    -3.430000000    -7.329000000     3.929000000
H    -2.412000000    -7.935000000     2.987000000
O    -1.738000000    -3.333000000     3.256000000
H    -1.602000000    -3.641000000     4.152000000
H    -2.483000000    -3.842000000     2.939000000
O     0.594000000    -2.830000000     1.739000000
H     0.318000000    -2.632000000     0.844000000
H    -0.192000000    -2.693000000     2.267000000
