215
-1436.41441
C     3.195000000     1.270000000     3.681000000
H     4.029000000     0.861000000     3.116000000
C     2.014000000     0.517000000     3.986000000
C     0.931000000     1.188000000     4.598000000
H    -0.014000000     0.698000000     4.819000000
C     1.850000000    -0.932000000     3.439000000
O     3.097000000    -1.544000000     3.316000000
H     1.498000000    -0.902000000     2.397000000
O     1.020000000    -1.662000000     4.294000000
C     0.237000000    -2.564000000     3.679000000
C    -1.103000000    -2.236000000     3.782000000
H    -1.562000000    -1.347000000     4.208000000
C    -1.988000000    -3.005000000     3.080000000
O    -3.264000000    -2.654000000     2.962000000
C    -1.612000000    -4.109000000     2.262000000
C    -2.556000000    -4.896000000     1.346000000
H    -2.212000000    -5.915000000     1.156000000
C    -2.711000000    -4.196000000    -0.021000000
C    -1.987000000    -4.758000000    -1.089000000
H    -1.312000000    -5.602000000    -0.971000000
H    -3.555000000    -4.986000000     1.777000000
C    -0.281000000    -4.518000000     2.325000000
H     0.011000000    -5.412000000     1.780000000
C     0.666000000    -3.783000000     2.946000000
C     2.122000000    -4.193000000     2.832000000
H     2.200000000    -5.279000000     2.753000000
H     2.500000000    -3.996000000     3.838000000
C     2.891000000    -3.420000000     1.853000000
C     3.049000000    -3.920000000     0.564000000
H     2.837000000    -4.946000000     0.272000000
C     3.426000000    -2.134000000     2.093000000
C     4.019000000    -1.376000000     1.117000000
H     4.417000000    -0.380000000     1.294000000
C     4.196000000    -1.913000000    -0.175000000
O     4.560000000    -1.149000000    -1.172000000
C     3.550000000    -0.443000000    -1.862000000
C     3.818000000     1.030000000    -1.967000000
C     3.126000000     1.780000000    -2.867000000
H     2.327000000     1.266000000    -3.396000000
C     4.919000000     1.602000000    -1.308000000
H     5.447000000     0.999000000    -0.573000000
O     3.514000000    -1.094000000    -3.180000000
H     2.638000000    -0.587000000    -1.263000000
C     3.730000000    -3.193000000    -0.432000000
C     3.711000000    -3.705000000    -1.868000000
H     3.854000000    -4.787000000    -1.921000000
H     4.580000000    -3.504000000    -2.498000000
C     2.528000000    -3.224000000    -2.610000000
C     1.363000000    -4.045000000    -2.698000000
H     1.432000000    -5.037000000    -2.260000000
C     2.523000000    -2.023000000    -3.290000000
C     1.440000000    -1.637000000    -4.084000000
H     1.335000000    -0.647000000    -4.521000000
C     0.262000000    -2.396000000    -4.098000000
O    -0.800000000    -1.834000000    -4.601000000
C    -1.703000000    -1.180000000    -3.732000000
C    -2.169000000     0.169000000    -4.232000000
C    -1.448000000     0.952000000    -5.176000000
H    -0.603000000     0.643000000    -5.786000000
C    -3.117000000     0.868000000    -3.400000000
H    -3.606000000     0.260000000    -2.644000000
O    -2.815000000    -2.105000000    -3.502000000
H    -1.213000000    -1.044000000    -2.756000000
C     0.242000000    -3.588000000    -3.433000000
C    -1.032000000    -4.413000000    -3.453000000
H    -0.674000000    -5.444000000    -3.477000000
H    -1.542000000    -4.266000000    -4.407000000
C    -1.938000000    -4.058000000    -2.307000000
C    -2.784000000    -2.931000000    -2.417000000
C    -3.507000000    -2.417000000    -1.338000000
H    -4.195000000    -1.589000000    -1.484000000
C    -3.519000000    -3.057000000    -0.129000000
O    -4.245000000    -2.547000000     0.845000000
C    -3.524000000    -1.777000000     1.830000000
H    -2.603000000    -1.355000000     1.402000000
C    -4.337000000    -0.540000000     2.241000000
C    -4.011000000     0.179000000     3.394000000
H    -3.200000000    -0.155000000     4.035000000
C    -5.417000000    -0.129000000     1.428000000
H    -5.618000000    -0.591000000     0.464000000
C    -6.055000000     1.075000000     1.825000000
O    -7.018000000     1.575000000     0.992000000
C    -5.645000000     1.881000000     2.840000000
H    -6.072000000     2.859000000     3.043000000
C    -4.663000000     1.403000000     3.703000000
O    -4.438000000     2.029000000     4.941000000
C    -3.292000000     1.910000000     5.787000000
C    -2.092000000     2.534000000     5.463000000
H    -1.953000000     3.096000000     4.543000000
C    -3.487000000     1.320000000     7.017000000
H    -4.418000000     0.860000000     7.339000000
C    -2.384000000     1.211000000     7.886000000
H    -2.469000000     0.577000000     8.765000000
C    -1.131000000     1.738000000     7.469000000
H    -0.260000000     1.737000000     8.121000000
C    -1.033000000     2.392000000     6.282000000
O     0.153000000     2.993000000     6.000000000
C     1.088000000     2.415000000     5.159000000
C     2.209000000     3.157000000     4.822000000
H     2.321000000     4.170000000     5.200000000
C     3.250000000     2.622000000     4.040000000
O     4.360000000     3.355000000     3.794000000
C     5.441000000     3.163000000     2.937000000
C     5.256000000     3.242000000     1.571000000
H     4.289000000     3.540000000     1.174000000
C     6.709000000     2.957000000     3.477000000
H     6.922000000     2.872000000     4.539000000
C     7.811000000     2.927000000     2.565000000
H     8.803000000     2.769000000     2.979000000
C     7.623000000     3.058000000     1.168000000
H     8.437000000     3.162000000     0.455000000
C     6.340000000     3.261000000     0.666000000
O     6.192000000     3.494000000    -0.724000000
C     5.163000000     2.974000000    -1.403000000
C     4.534000000     3.752000000    -2.334000000
H     4.741000000     4.817000000    -2.396000000
C     3.493000000     3.140000000    -3.083000000
O     2.660000000     3.935000000    -3.775000000
C     2.064000000     3.550000000    -4.983000000
C     0.672000000     3.494000000    -5.130000000
H     0.056000000     3.770000000    -4.279000000
C     2.845000000     3.282000000    -6.085000000
H     3.913000000     3.486000000    -6.066000000
C     2.279000000     2.952000000    -7.334000000
H     2.979000000     2.704000000    -8.128000000
C     0.890000000     2.919000000    -7.452000000
H     0.408000000     2.492000000    -8.329000000
C     0.067000000     3.129000000    -6.319000000
O    -1.254000000     2.944000000    -6.359000000
C    -1.912000000     2.215000000    -5.414000000
C    -2.885000000     2.872000000    -4.659000000
H    -3.177000000     3.899000000    -4.863000000
C    -3.507000000     2.234000000    -3.632000000
O    -4.361000000     2.915000000    -2.797000000
C    -5.474000000     2.315000000    -2.278000000
C    -6.400000000     1.821000000    -3.237000000
H    -6.296000000     2.067000000    -4.291000000
C    -7.478000000     1.143000000    -2.698000000
H    -8.155000000     0.728000000    -3.440000000
C    -7.738000000     1.052000000    -1.354000000
H    -8.596000000     0.454000000    -1.057000000
C    -6.857000000     1.611000000    -0.380000000
C    -5.763000000     2.229000000    -0.896000000
H    -5.002000000     2.501000000    -0.169000000
C    -0.676000000     1.903000000    -1.212000000
H    -0.510000000     2.534000000    -2.082000000
C    -0.108000000     0.622000000    -1.136000000
H     0.535000000     0.219000000    -1.914000000
C    -0.299000000    -0.106000000     0.050000000
H     0.092000000    -1.143000000     0.319000000
C    -0.881000000     0.525000000     1.098000000
H    -0.890000000     0.113000000     2.104000000
C    -1.529000000     1.739000000     1.015000000
H    -1.937000000     2.283000000     1.864000000
C    -1.326000000     2.497000000    -0.159000000
C    -1.724000000     3.949000000    -0.246000000
O    -2.373000000     4.466000000     0.579000000
O    -1.176000000     4.671000000    -1.002000000
O     1.674000000     8.905000000     0.099000000
H     2.356000000     8.790000000    -0.563000000
H     1.365000000     8.017000000     0.280000000
O    -3.526000000     7.765000000     2.647000000
H    -3.370000000     6.822000000     2.688000000
H    -2.690000000     8.134000000     2.360000000
O     1.482000000     4.654000000    -1.305000000
H     1.650000000     3.993000000    -1.976000000
H     0.549000000     4.565000000    -1.110000000
O    -8.014000000     5.730000000    -1.429000000
H    -7.465000000     5.253000000    -0.806000000
H    -7.529000000     6.535000000    -1.609000000
O     0.310000000     7.525000000    -2.483000000
H     0.239000000     6.586000000    -2.312000000
H     1.128000000     7.785000000    -2.059000000
O    -4.515000000     7.507000000    -3.495000000
H    -3.739000000     7.420000000    -2.941000000
H    -4.218000000     8.027000000    -4.242000000
O     1.423000000     6.019000000     2.950000000
H     1.589000000     5.952000000     2.010000000
H     1.479000000     6.956000000     3.137000000
O    -3.174000000     5.142000000     3.003000000
H    -2.355000000     5.159000000     3.499000000
H    -2.937000000     4.746000000     2.164000000
O    -5.119000000     5.320000000     0.385000000
H    -4.178000000     5.329000000     0.559000000
H    -5.404000000     6.216000000     0.565000000
O    -7.128000000     4.391000000    -5.341000000
H    -6.455000000     4.790000000    -4.789000000
H    -7.939000000     4.832000000    -5.087000000
O    -2.848000000     9.159000000    -1.012000000
H    -1.951000000     9.407000000    -1.237000000
H    -2.846000000     8.202000000    -1.038000000
O    -0.986000000     9.145000000     2.250000000
H    -0.724000000     8.425000000     1.676000000
H    -0.563000000     9.917000000     1.874000000
O     2.811000000     6.117000000     0.578000000
H     2.538000000     5.569000000    -0.157000000
H     3.712000000     6.366000000     0.369000000
O    -6.287000000     7.987000000    -1.119000000
H    -5.966000000     8.830000000    -0.799000000
H    -5.720000000     7.782000000    -1.863000000
O    -3.133000000     6.333000000    -1.235000000
H    -3.944000000     5.825000000    -1.262000000
H    -2.446000000     5.680000000    -1.100000000
O    -0.996000000     6.721000000     0.722000000
H    -1.286000000     6.068000000     1.358000000
H    -1.179000000     6.324000000    -0.130000000
O    -0.236000000     8.277000000    -5.027000000
H    -0.060000000     7.943000000    -4.148000000
H    -0.831000000     9.014000000    -4.889000000
O    -0.898000000     5.663000000     4.308000000
H    -0.191000000     5.667000000     3.663000000
H    -0.697000000     6.396000000     4.889000000
O    -5.626000000     9.603000000     1.547000000
H    -4.962000000    10.108000000     1.079000000
H    -5.126000000     9.049000000     2.147000000
