215
-1454.78933
C     3.481000000     0.671000000     3.776000000
H     4.401000000     0.189000000     3.455000000
C     2.244000000     0.056000000     3.645000000
C     1.109000000     0.635000000     4.073000000
H     0.205000000     0.032000000     4.112000000
C     2.145000000    -1.339000000     3.098000000
O     3.504000000    -1.997000000     3.012000000
H     1.622000000    -1.188000000     2.143000000
O     1.349000000    -2.206000000     3.879000000
C     0.427000000    -3.059000000     3.317000000
C    -0.858000000    -2.709000000     3.549000000
H    -1.076000000    -1.969000000     4.315000000
C    -1.837000000    -3.343000000     2.753000000
O    -3.103000000    -2.871000000     2.841000000
C    -1.561000000    -4.357000000     1.867000000
C    -2.634000000    -5.023000000     0.986000000
H    -2.375000000    -6.036000000     0.670000000
C    -2.908000000    -4.170000000    -0.282000000
C    -2.118000000    -4.397000000    -1.347000000
H    -1.408000000    -5.220000000    -1.317000000
H    -3.549000000    -5.116000000     1.574000000
C    -0.242000000    -4.809000000     1.736000000
H    -0.053000000    -5.664000000     1.093000000
C     0.765000000    -4.160000000     2.478000000
C     2.196000000    -4.615000000     2.237000000
H     2.172000000    -5.648000000     1.885000000
H     2.747000000    -4.632000000     3.179000000
C     3.054000000    -3.696000000     1.364000000
C     3.012000000    -4.085000000    -0.001000000
H     2.537000000    -4.995000000    -0.359000000
C     3.765000000    -2.559000000     1.801000000
C     4.313000000    -1.755000000     0.825000000
H     4.715000000    -0.793000000     1.133000000
C     4.252000000    -2.113000000    -0.506000000
O     4.708000000    -1.252000000    -1.437000000
C     3.760000000    -0.446000000    -2.017000000
C     4.015000000     1.000000000    -1.926000000
C     3.316000000     1.927000000    -2.749000000
H     2.599000000     1.523000000    -3.459000000
C     4.914000000     1.563000000    -0.997000000
H     5.398000000     0.881000000    -0.303000000
O     3.428000000    -0.844000000    -3.388000000
H     2.851000000    -0.613000000    -1.420000000
C     3.635000000    -3.255000000    -0.965000000
C     3.479000000    -3.622000000    -2.446000000
H     3.428000000    -4.706000000    -2.566000000
H     4.371000000    -3.271000000    -2.969000000
C     2.245000000    -2.889000000    -2.910000000
C     1.027000000    -3.541000000    -2.914000000
H     0.936000000    -4.491000000    -2.394000000
C     2.398000000    -1.680000000    -3.607000000
C     1.285000000    -1.192000000    -4.234000000
H     1.315000000    -0.266000000    -4.803000000
C     0.065000000    -1.902000000    -4.271000000
O    -1.069000000    -1.230000000    -4.735000000
C    -1.972000000    -0.699000000    -3.777000000
C    -2.542000000     0.602000000    -4.289000000
C    -1.834000000     1.370000000    -5.199000000
H    -0.888000000     0.985000000    -5.571000000
C    -3.654000000     1.200000000    -3.670000000
H    -4.127000000     0.588000000    -2.906000000
O    -3.023000000    -1.620000000    -3.559000000
H    -1.458000000    -0.407000000    -2.849000000
C    -0.055000000    -3.134000000    -3.625000000
C    -1.372000000    -3.890000000    -3.707000000
H    -1.133000000    -4.955000000    -3.712000000
H    -1.812000000    -3.683000000    -4.685000000
C    -2.199000000    -3.584000000    -2.507000000
C    -3.006000000    -2.498000000    -2.467000000
C    -3.744000000    -2.134000000    -1.346000000
H    -4.380000000    -1.253000000    -1.355000000
C    -3.728000000    -3.010000000    -0.239000000
O    -4.389000000    -2.557000000     0.919000000
C    -3.528000000    -1.962000000     1.846000000
H    -2.674000000    -1.569000000     1.275000000
C    -4.240000000    -0.764000000     2.402000000
C    -4.206000000    -0.420000000     3.779000000
H    -3.607000000    -1.030000000     4.450000000
C    -4.988000000     0.062000000     1.564000000
H    -5.162000000    -0.127000000     0.508000000
C    -5.505000000     1.267000000     2.045000000
O    -6.244000000     2.234000000     1.248000000
C    -5.433000000     1.674000000     3.377000000
H    -5.786000000     2.617000000     3.786000000
C    -4.786000000     0.809000000     4.238000000
O    -4.587000000     1.161000000     5.578000000
C    -3.343000000     1.433000000     6.070000000
C    -2.393000000     1.963000000     5.226000000
H    -2.645000000     2.363000000     4.247000000
C    -2.967000000     1.083000000     7.353000000
H    -3.689000000     0.598000000     8.005000000
C    -1.689000000     1.261000000     7.804000000
H    -1.325000000     1.127000000     8.820000000
C    -0.718000000     1.678000000     6.938000000
H     0.282000000     1.807000000     7.344000000
C    -1.083000000     2.077000000     5.667000000
O    -0.132000000     2.588000000     4.843000000
C     1.074000000     1.924000000     4.562000000
C     2.297000000     2.575000000     4.763000000
H     2.274000000     3.537000000     5.269000000
C     3.523000000     1.996000000     4.324000000
O     4.706000000     2.641000000     4.493000000
C     5.708000000     2.826000000     3.502000000
C     5.330000000     2.962000000     2.171000000
H     4.272000000     2.997000000     1.923000000
C     7.087000000     2.945000000     3.939000000
H     7.437000000     2.873000000     4.965000000
C     8.061000000     3.082000000     2.999000000
H     9.123000000     3.078000000     3.230000000
C     7.710000000     3.162000000     1.613000000
H     8.456000000     3.244000000     0.826000000
C     6.363000000     3.185000000     1.209000000
O     6.077000000     3.471000000    -0.088000000
C     5.085000000     2.982000000    -0.888000000
C     4.357000000     3.815000000    -1.701000000
H     4.418000000     4.899000000    -1.752000000
C     3.404000000     3.285000000    -2.545000000
O     2.559000000     4.113000000    -3.262000000
C     1.957000000     3.837000000    -4.547000000
C     0.628000000     3.805000000    -4.772000000
H    -0.052000000     4.195000000    -4.018000000
C     2.871000000     3.674000000    -5.609000000
H     3.938000000     3.733000000    -5.408000000
C     2.413000000     3.367000000    -6.968000000
H     3.141000000     3.326000000    -7.774000000
C     1.027000000     3.315000000    -7.166000000
H     0.408000000     3.157000000    -8.045000000
C     0.157000000     3.516000000    -6.063000000
O    -1.249000000     3.493000000    -6.155000000
C    -2.091000000     2.714000000    -5.412000000
C    -3.195000000     3.241000000    -4.772000000
H    -3.315000000     4.300000000    -4.987000000
C    -3.960000000     2.508000000    -3.907000000
O    -5.100000000     3.021000000    -3.206000000
C    -5.875000000     2.361000000    -2.348000000
C    -6.974000000     1.697000000    -2.806000000
H    -7.157000000     1.380000000    -3.830000000
C    -7.902000000     1.151000000    -1.867000000
H    -8.811000000     0.660000000    -2.204000000
C    -7.679000000     1.326000000    -0.522000000
H    -8.355000000     1.043000000     0.281000000
C    -6.457000000     1.939000000    -0.090000000
C    -5.628000000     2.540000000    -0.993000000
H    -4.730000000     3.046000000    -0.648000000
C    -0.337000000     2.039000000    -1.409000000
H    -0.098000000     2.631000000    -2.289000000
C     0.056000000     0.715000000    -1.249000000
H     0.694000000     0.270000000    -2.008000000
C    -0.348000000    -0.043000000    -0.166000000
H    -0.119000000    -1.128000000    -0.067000000
C    -1.064000000     0.567000000     0.857000000
H    -1.261000000    -0.016000000     1.753000000
C    -1.447000000     1.865000000     0.781000000
H    -1.946000000     2.346000000     1.619000000
C    -0.995000000     2.643000000    -0.380000000
C    -1.174000000     4.123000000    -0.359000000
O    -1.883000000     4.662000000     0.456000000
O    -0.496000000     4.825000000    -1.086000000
O     2.184000000     8.787000000    -0.438000000
H     2.938000000     9.103000000    -0.934000000
H     2.221000000     7.835000000    -0.525000000
O    -4.104000000     7.807000000     4.635000000
H    -4.256000000     6.862000000     4.635000000
H    -3.668000000     7.979000000     3.800000000
O     1.926000000     6.116000000    -0.890000000
H     2.214000000     5.618000000    -1.655000000
H     1.009000000     5.870000000    -0.774000000
O     0.151000000    10.430000000    -0.279000000
H     0.887000000     9.822000000    -0.224000000
H     0.242000000    10.839000000    -1.140000000
O    -2.105000000     6.132000000    -3.065000000
H    -1.525000000     5.859000000    -2.354000000
H    -2.987000000     6.040000000    -2.704000000
O    -4.458000000     5.190000000     3.783000000
H    -3.561000000     4.895000000     3.622000000
H    -4.661000000     4.871000000     4.662000000
O     3.327000000     5.913000000     3.972000000
H     3.326000000     5.422000000     3.151000000
H     2.448000000     6.288000000     4.029000000
O    -1.931000000     4.504000000     2.945000000
H    -1.039000000     4.189000000     3.091000000
H    -1.965000000     4.704000000     2.009000000
O    -3.820000000     6.110000000    -0.531000000
H    -3.217000000     5.395000000    -0.328000000
H    -4.310000000     6.248000000     0.280000000
O    -5.660000000     6.685000000     1.515000000
H    -6.580000000     6.430000000     1.585000000
H    -5.202000000     6.096000000     2.115000000
O    -2.982000000    10.475000000     0.477000000
H    -3.164000000    11.202000000    -0.118000000
H    -2.117000000    10.161000000     0.215000000
O    -2.875000000     8.086000000     2.158000000
H    -2.184000000     7.627000000     1.681000000
H    -2.698000000     9.013000000     2.003000000
O     3.281000000     5.244000000     1.293000000
H     2.644000000     5.561000000     0.653000000
H     4.124000000     5.311000000     0.845000000
O    -6.358000000     8.002000000    -1.634000000
H    -6.028000000     7.709000000    -0.785000000
H    -5.596000000     8.387000000    -2.067000000
O    -0.943000000     7.335000000     0.016000000
H    -1.247000000     6.442000000    -0.147000000
H    -0.851000000     7.720000000    -0.856000000
O     0.924000000     6.722000000    -5.716000000
H     0.004000000     6.460000000    -5.756000000
H     0.901000000     7.629000000    -5.412000000
O    -5.313000000     9.460000000     1.068000000
H    -4.462000000     9.894000000     1.010000000
H    -5.114000000     8.528000000     0.971000000
O    -0.062000000     6.837000000     2.964000000
H     0.048000000     7.275000000     2.120000000
H    -0.738000000     6.178000000     2.805000000
O    -2.196000000     6.930000000    -5.874000000
H    -2.284000000     6.473000000    -5.037000000
H    -2.258000000     7.858000000    -5.649000000
