215
-1496.39047
C     3.213000000     0.929000000     4.193000000
H     4.098000000     0.482000000     3.747000000
C     2.006000000     0.262000000     4.269000000
C     0.861000000     0.845000000     4.783000000
H    -0.125000000     0.386000000     4.774000000
C     1.831000000    -1.135000000     3.656000000
O     3.159000000    -1.766000000     3.430000000
H     1.426000000    -1.100000000     2.634000000
O     0.982000000    -2.010000000     4.413000000
C     0.121000000    -2.751000000     3.721000000
C    -1.170000000    -2.247000000     3.599000000
H    -1.398000000    -1.357000000     4.181000000
C    -2.189000000    -2.841000000     2.863000000
O    -3.477000000    -2.356000000     2.821000000
C    -1.844000000    -4.002000000     2.106000000
C    -2.872000000    -4.572000000     1.121000000
H    -2.635000000    -5.638000000     1.093000000
C    -2.893000000    -3.855000000    -0.203000000
C    -2.133000000    -4.389000000    -1.179000000
H    -1.557000000    -5.292000000    -0.998000000
H    -3.895000000    -4.530000000     1.502000000
C    -0.567000000    -4.572000000     2.190000000
H    -0.297000000    -5.435000000     1.587000000
C     0.434000000    -3.923000000     2.976000000
C     1.849000000    -4.433000000     2.963000000
H     1.750000000    -5.483000000     2.680000000
H     2.247000000    -4.350000000     3.976000000
C     2.750000000    -3.696000000     1.944000000
C     2.853000000    -4.232000000     0.635000000
H     2.400000000    -5.204000000     0.460000000
C     3.279000000    -2.454000000     2.201000000
C     3.932000000    -1.751000000     1.199000000
H     4.254000000    -0.748000000     1.469000000
C     4.055000000    -2.286000000    -0.052000000
O     4.631000000    -1.457000000    -1.004000000
C     3.833000000    -0.778000000    -1.965000000
C     4.351000000     0.681000000    -2.073000000
C     4.303000000     1.292000000    -3.274000000
H     3.974000000     0.675000000    -4.106000000
C     4.719000000     1.408000000    -0.928000000
H     4.775000000     0.926000000     0.045000000
O     3.703000000    -1.555000000    -3.136000000
H     2.811000000    -0.694000000    -1.569000000
C     3.436000000    -3.491000000    -0.399000000
C     3.458000000    -4.085000000    -1.781000000
H     3.384000000    -5.172000000    -1.707000000
H     4.422000000    -3.865000000    -2.245000000
C     2.363000000    -3.471000000    -2.650000000
C     1.117000000    -4.108000000    -2.804000000
H     0.956000000    -5.059000000    -2.302000000
C     2.532000000    -2.242000000    -3.249000000
C     1.548000000    -1.677000000    -4.056000000
H     1.781000000    -0.800000000    -4.654000000
C     0.271000000    -2.251000000    -4.096000000
O    -0.739000000    -1.485000000    -4.655000000
C    -1.721000000    -0.848000000    -3.790000000
C    -2.113000000     0.511000000    -4.257000000
C    -1.090000000     1.301000000    -4.746000000
H    -0.111000000     0.847000000    -4.876000000
C    -3.389000000     1.047000000    -4.192000000
H    -4.234000000     0.463000000    -3.835000000
O    -2.910000000    -1.725000000    -3.695000000
H    -1.315000000    -0.684000000    -2.781000000
C     0.052000000    -3.477000000    -3.452000000
C    -1.317000000    -4.117000000    -3.595000000
H    -1.091000000    -5.185000000    -3.609000000
H    -1.743000000    -3.808000000    -4.552000000
C    -2.173000000    -3.782000000    -2.397000000
C    -2.953000000    -2.572000000    -2.568000000
C    -3.806000000    -2.088000000    -1.579000000
H    -4.380000000    -1.168000000    -1.648000000
C    -3.694000000    -2.703000000    -0.329000000
O    -4.435000000    -2.201000000     0.715000000
C    -3.784000000    -1.452000000     1.724000000
H    -2.774000000    -1.165000000     1.396000000
C    -4.381000000    -0.136000000     2.052000000
C    -4.356000000     0.383000000     3.363000000
H    -3.927000000    -0.249000000     4.135000000
C    -4.834000000     0.676000000     1.015000000
H    -4.744000000     0.277000000     0.008000000
C    -5.242000000     1.966000000     1.307000000
O    -5.798000000     2.821000000     0.327000000
C    -5.170000000     2.518000000     2.546000000
H    -5.408000000     3.569000000     2.687000000
C    -4.757000000     1.717000000     3.621000000
O    -4.709000000     2.216000000     4.885000000
C    -3.593000000     2.239000000     5.755000000
C    -2.278000000     2.460000000     5.300000000
H    -2.135000000     2.874000000     4.305000000
C    -3.768000000     1.802000000     7.098000000
H    -4.785000000     1.567000000     7.402000000
C    -2.723000000     1.609000000     7.987000000
H    -2.890000000     1.269000000     9.006000000
C    -1.405000000     1.800000000     7.468000000
H    -0.547000000     1.748000000     8.134000000
C    -1.229000000     2.322000000     6.197000000
O    -0.067000000     2.870000000     5.814000000
C     0.969000000     2.149000000     5.331000000
C     2.136000000     2.840000000     5.323000000
H     2.334000000     3.773000000     5.844000000
C     3.237000000     2.234000000     4.742000000
O     4.403000000     2.873000000     4.775000000
C     5.327000000     2.956000000     3.682000000
C     4.826000000     3.124000000     2.409000000
H     3.768000000     3.338000000     2.282000000
C     6.681000000     2.580000000     3.901000000
H     7.053000000     2.467000000     4.916000000
C     7.550000000     2.505000000     2.762000000
H     8.619000000     2.331000000     2.860000000
C     7.061000000     2.733000000     1.509000000
H     7.670000000     2.806000000     0.612000000
C     5.735000000     3.170000000     1.354000000
O     5.241000000     3.590000000     0.190000000
C     4.994000000     2.820000000    -0.974000000
C     4.899000000     3.463000000    -2.195000000
H     5.126000000     4.521000000    -2.297000000
C     4.550000000     2.699000000    -3.346000000
O     4.375000000     3.350000000    -4.546000000
C     3.285000000     2.991000000    -5.339000000
C     1.990000000     3.441000000    -4.997000000
H     1.769000000     4.087000000    -4.151000000
C     3.566000000     2.186000000    -6.444000000
H     4.596000000     1.891000000    -6.626000000
C     2.459000000     1.882000000    -7.269000000
H     2.677000000     1.299000000    -8.160000000
C     1.153000000     2.363000000    -6.992000000
H     0.337000000     2.173000000    -7.685000000
C     0.946000000     3.143000000    -5.867000000
O    -0.316000000     3.513000000    -5.544000000
C    -1.308000000     2.641000000    -5.136000000
C    -2.572000000     3.196000000    -5.001000000
H    -2.709000000     4.223000000    -5.329000000
C    -3.629000000     2.384000000    -4.536000000
O    -4.910000000     2.891000000    -4.320000000
C    -5.740000000     2.465000000    -3.274000000
C    -7.081000000     2.086000000    -3.469000000
H    -7.456000000     2.142000000    -4.488000000
C    -7.876000000     1.633000000    -2.413000000
H    -8.802000000     1.083000000    -2.562000000
C    -7.392000000     1.777000000    -1.132000000
H    -8.020000000     1.378000000    -0.339000000
C    -6.173000000     2.430000000    -0.888000000
C    -5.343000000     2.701000000    -1.951000000
H    -4.303000000     2.937000000    -1.743000000
C    -0.485000000     2.357000000    -1.247000000
H    -0.331000000     2.911000000    -2.170000000
C     0.131000000     1.084000000    -1.196000000
H     0.769000000     0.702000000    -1.989000000
C    -0.019000000     0.365000000    -0.033000000
H     0.474000000    -0.564000000     0.013000000
C    -0.831000000     0.793000000     0.994000000
H    -0.830000000     0.137000000     1.860000000
C    -1.370000000     2.067000000     0.997000000
H    -2.033000000     2.346000000     1.812000000
C    -1.199000000     2.888000000    -0.158000000
C    -1.840000000     4.231000000    -0.244000000
O    -2.854000000     4.424000000     0.365000000
O    -1.360000000     5.067000000    -1.004000000
O     1.351000000     8.405000000    -0.826000000
H     1.303000000     7.985000000    -1.685000000
H     0.619000000     8.030000000    -0.336000000
O     2.071000000     3.804000000     0.371000000
H     1.198000000     3.536000000     0.085000000
H     2.632000000     3.640000000    -0.387000000
O    -2.043000000     9.007000000    -4.320000000
H    -1.680000000     8.453000000    -5.011000000
H    -2.854000000     9.352000000    -4.692000000
O    -6.867000000     5.468000000    -1.655000000
H    -5.979000000     5.705000000    -1.387000000
H    -7.033000000     4.632000000    -1.221000000
O     0.774000000     6.016000000    -2.605000000
H     0.188000000     5.712000000    -1.912000000
H     1.653000000     5.868000000    -2.257000000
O    -4.969000000     7.834000000    -2.656000000
H    -5.215000000     8.138000000    -3.529000000
H    -4.494000000     7.017000000    -2.811000000
O    -4.121000000     5.531000000     5.187000000
H    -3.570000000     5.227000000     4.466000000
H    -4.660000000     6.222000000     4.802000000
O     3.590000000     6.419000000    -1.557000000
H     3.606000000     6.889000000    -0.723000000
H     3.955000000     7.038000000    -2.188000000
O     1.208000000     6.148000000     5.217000000
H     0.498000000     5.567000000     5.492000000
H     0.822000000     6.685000000     4.525000000
O    -2.841000000     5.031000000     2.809000000
H    -1.953000000     5.387000000     2.785000000
H    -2.969000000     4.650000000     1.940000000
O    -1.330000000    10.478000000     1.818000000
H    -0.723000000    10.473000000     1.078000000
H    -2.046000000     9.904000000     1.545000000
O    -4.922000000     6.245000000    -0.025000000
H    -4.394000000     5.666000000     0.525000000
H    -4.482000000     6.236000000    -0.875000000
O    -2.545000000     8.790000000    -1.642000000
H    -2.213000000     8.919000000    -2.530000000
H    -3.405000000     8.388000000    -1.763000000
O    -3.737000000     9.142000000     1.120000000
H    -3.958000000     8.222000000     0.976000000
H    -4.295000000     9.621000000     0.507000000
O     2.328000000     5.542000000     2.354000000
H     2.125000000     4.727000000     1.896000000
H     2.997000000     5.960000000     1.813000000
O    -3.539000000     5.726000000    -2.551000000
H    -2.763000000     5.618000000    -2.002000000
H    -3.696000000     4.856000000    -2.919000000
O    -1.123000000     7.403000000     0.129000000
H    -1.249000000     6.555000000    -0.296000000
H    -1.558000000     8.028000000    -0.451000000
O    -1.075000000     6.306000000    -4.800000000
H    -0.236000000     6.333000000    -4.341000000
H    -1.724000000     6.196000000    -4.105000000
O    -0.339000000     6.301000000     2.786000000
H     0.568000000     6.122000000     2.541000000
H    -0.686000000     6.817000000     2.058000000
