215
-1448.15765
C     3.635000000     0.163000000     4.115000000
H     4.261000000    -0.194000000     3.302000000
C     2.451000000    -0.550000000     4.397000000
C     1.590000000    -0.259000000     5.430000000
H     0.601000000    -0.691000000     5.559000000
C     2.012000000    -1.719000000     3.474000000
O     3.040000000    -2.553000000     3.032000000
H     1.556000000    -1.197000000     2.620000000
O     0.952000000    -2.596000000     4.029000000
C    -0.081000000    -3.113000000     3.266000000
C    -1.294000000    -2.430000000     3.379000000
H    -1.357000000    -1.604000000     4.083000000
C    -2.290000000    -2.826000000     2.513000000
O    -3.384000000    -2.083000000     2.585000000
C    -2.204000000    -3.945000000     1.650000000
C    -3.344000000    -4.460000000     0.732000000
H    -3.061000000    -5.453000000     0.377000000
C    -3.426000000    -3.573000000    -0.513000000
C    -2.757000000    -4.040000000    -1.716000000
H    -2.168000000    -4.952000000    -1.666000000
H    -4.249000000    -4.456000000     1.343000000
C    -0.930000000    -4.518000000     1.573000000
H    -0.762000000    -5.193000000     0.737000000
C     0.110000000    -4.216000000     2.399000000
C     1.471000000    -4.887000000     2.203000000
H     1.498000000    -5.954000000     1.971000000
H     1.853000000    -4.834000000     3.225000000
C     2.296000000    -4.090000000     1.268000000
C     2.340000000    -4.405000000    -0.095000000
H     1.735000000    -5.275000000    -0.339000000
C     2.979000000    -2.946000000     1.721000000
C     3.824000000    -2.201000000     0.817000000
H     4.493000000    -1.416000000     1.161000000
C     3.771000000    -2.508000000    -0.538000000
O     4.295000000    -1.543000000    -1.337000000
C     3.348000000    -0.591000000    -1.861000000
C     3.785000000     0.869000000    -1.736000000
C     3.235000000     1.827000000    -2.551000000
H     2.415000000     1.494000000    -3.183000000
C     4.864000000     1.188000000    -0.884000000
H     5.361000000     0.456000000    -0.252000000
O     2.897000000    -0.927000000    -3.204000000
H     2.433000000    -0.708000000    -1.261000000
C     3.041000000    -3.621000000    -0.987000000
C     2.902000000    -3.858000000    -2.449000000
H     2.753000000    -4.933000000    -2.567000000
H     3.788000000    -3.646000000    -3.051000000
C     1.728000000    -3.115000000    -3.183000000
C     0.552000000    -3.804000000    -3.406000000
H     0.503000000    -4.835000000    -3.065000000
C     1.852000000    -1.780000000    -3.546000000
C     0.835000000    -1.205000000    -4.287000000
H     1.095000000    -0.228000000    -4.687000000
C    -0.370000000    -1.866000000    -4.413000000
O    -1.422000000    -1.158000000    -4.932000000
C    -2.277000000    -0.459000000    -4.027000000
C    -2.517000000     1.012000000    -4.376000000
C    -1.518000000     1.729000000    -4.997000000
H    -0.606000000     1.217000000    -5.294000000
C    -3.620000000     1.700000000    -3.959000000
H    -4.369000000     1.148000000    -3.397000000
O    -3.520000000    -1.218000000    -3.929000000
H    -1.812000000    -0.427000000    -3.031000000
C    -0.578000000    -3.139000000    -3.885000000
C    -1.950000000    -3.875000000    -4.075000000
H    -1.708000000    -4.938000000    -4.013000000
H    -2.518000000    -3.715000000    -4.994000000
C    -2.837000000    -3.350000000    -2.886000000
C    -3.482000000    -2.103000000    -2.891000000
C    -4.120000000    -1.645000000    -1.751000000
H    -4.577000000    -0.660000000    -1.796000000
C    -4.090000000    -2.347000000    -0.556000000
O    -4.509000000    -1.643000000     0.578000000
C    -3.531000000    -1.173000000     1.539000000
H    -2.613000000    -1.037000000     0.948000000
C    -3.847000000     0.204000000     2.149000000
C    -3.402000000     0.597000000     3.449000000
H    -2.921000000    -0.102000000     4.128000000
C    -4.562000000     1.109000000     1.351000000
H    -4.992000000     0.952000000     0.366000000
C    -4.638000000     2.419000000     1.689000000
O    -5.371000000     3.313000000     0.843000000
C    -4.342000000     2.830000000     3.028000000
H    -4.609000000     3.761000000     3.522000000
C    -3.610000000     1.891000000     3.861000000
O    -3.179000000     2.313000000     5.123000000
C    -2.460000000     1.586000000     6.032000000
C    -1.065000000     1.801000000     6.021000000
H    -0.623000000     2.417000000     5.242000000
C    -3.061000000     0.711000000     6.934000000
H    -4.096000000     0.443000000     6.734000000
C    -2.350000000    -0.001000000     7.887000000
H    -2.886000000    -0.651000000     8.573000000
C    -0.943000000     0.199000000     7.958000000
H    -0.361000000    -0.282000000     8.740000000
C    -0.339000000     1.051000000     6.994000000
O     0.970000000     1.347000000     7.120000000
C     1.939000000     0.837000000     6.231000000
C     3.111000000     1.499000000     6.006000000
H     3.319000000     2.373000000     6.619000000
C     3.972000000     1.177000000     4.937000000
O     5.049000000     2.025000000     4.751000000
C     5.985000000     2.050000000     3.653000000
C     5.584000000     2.310000000     2.281000000
H     4.547000000     2.550000000     2.058000000
C     7.341000000     1.772000000     3.964000000
H     7.778000000     1.633000000     4.950000000
C     8.278000000     1.878000000     2.938000000
H     9.319000000     1.674000000     3.176000000
C     7.885000000     2.126000000     1.631000000
H     8.550000000     2.100000000     0.772000000
C     6.533000000     2.281000000     1.278000000
O     6.263000000     2.879000000     0.063000000
C     5.295000000     2.515000000    -0.842000000
C     4.756000000     3.460000000    -1.700000000
H     5.221000000     4.440000000    -1.630000000
C     3.729000000     3.085000000    -2.563000000
O     3.284000000     3.966000000    -3.504000000
C     2.600000000     3.663000000    -4.664000000
C     1.298000000     3.996000000    -4.881000000
H     0.789000000     4.442000000    -4.030000000
C     3.295000000     2.976000000    -5.702000000
H     4.360000000     2.756000000    -5.690000000
C     2.603000000     2.733000000    -6.900000000
H     3.184000000     2.290000000    -7.705000000
C     1.235000000     3.106000000    -7.062000000
H     0.790000000     2.846000000    -8.020000000
C     0.558000000     3.611000000    -5.991000000
O    -0.792000000     3.789000000    -6.142000000
C    -1.706000000     3.087000000    -5.311000000
C    -2.863000000     3.760000000    -4.993000000
H    -2.889000000     4.820000000    -5.235000000
C    -3.891000000     3.093000000    -4.303000000
O    -4.978000000     3.827000000    -3.894000000
C    -5.655000000     3.376000000    -2.790000000
C    -7.061000000     3.102000000    -2.910000000
H    -7.595000000     3.078000000    -3.856000000
C    -7.746000000     2.738000000    -1.769000000
H    -8.786000000     2.479000000    -1.948000000
C    -7.170000000     2.604000000    -0.579000000
H    -7.758000000     2.414000000     0.316000000
C    -5.893000000     3.093000000    -0.397000000
C    -5.115000000     3.526000000    -1.494000000
H    -4.188000000     4.073000000    -1.339000000
C    -0.213000000     2.352000000    -1.141000000
H     0.035000000     2.898000000    -2.047000000
C    -0.146000000     0.931000000    -1.043000000
H     0.146000000     0.406000000    -1.950000000
C    -0.348000000     0.184000000     0.124000000
H    -0.283000000    -0.889000000     0.227000000
C    -0.713000000     0.921000000     1.239000000
H    -0.961000000     0.352000000     2.132000000
C    -0.840000000     2.322000000     1.204000000
H    -1.276000000     2.771000000     2.092000000
C    -0.595000000     3.062000000     0.076000000
C    -0.929000000     4.601000000     0.093000000
O    -1.019000000     5.126000000     1.169000000
O    -0.749000000     5.260000000    -0.912000000
O    -1.995000000    10.214000000    -0.458000000
H    -1.754000000     9.990000000     0.441000000
H    -2.257000000     9.381000000    -0.850000000
O     1.804000000     5.712000000    -0.451000000
H     2.130000000     4.823000000    -0.315000000
H     0.873000000     5.599000000    -0.644000000
O     0.853000000     6.639000000     2.260000000
H     1.475000000     6.867000000     1.569000000
H     0.163000000     6.152000000     1.810000000
O    -1.415000000     6.248000000    -3.407000000
H    -1.406000000     5.559000000    -2.743000000
H    -0.535000000     6.622000000    -3.377000000
O     2.765000000     3.667000000     0.972000000
H     2.200000000     3.922000000     1.701000000
H     2.761000000     2.710000000     0.988000000
O    -4.966000000     6.697000000    -3.327000000
H    -4.979000000     5.757000000    -3.504000000
H    -5.881000000     6.968000000    -3.402000000
O     1.596000000     4.369000000     3.422000000
H     1.518000000     5.228000000     3.007000000
H     0.966000000     4.393000000     4.143000000
O     1.029000000     7.558000000     4.931000000
H     1.010000000     7.264000000     4.020000000
H     0.502000000     8.357000000     4.935000000
O    -3.126000000     7.262000000    -0.844000000
H    -3.428000000     7.337000000    -1.749000000
H    -2.330000000     6.733000000    -0.900000000
O     1.139000000     7.164000000    -2.862000000
H     1.207000000     6.656000000    -2.053000000
H     2.037000000     7.435000000    -3.051000000
O     2.319000000     1.180000000     1.301000000
H     2.493000000     1.066000000     2.235000000
H     1.403000000     1.454000000     1.260000000
O    -2.866000000     5.811000000     3.090000000
H    -3.496000000     6.312000000     2.572000000
H    -2.223000000     5.502000000     2.452000000
O    -1.231000000     8.947000000     2.025000000
H    -0.679000000     8.262000000     2.401000000
H    -2.095000000     8.541000000     1.945000000
O     1.089000000     9.944000000    -2.927000000
H     0.410000000    10.394000000    -3.430000000
H     0.822000000     9.025000000    -2.933000000
O     4.505000000     5.564000000     0.941000000
H     4.708000000     6.035000000     0.132000000
H     3.913000000     4.863000000     0.668000000
O    -3.048000000     5.152000000     5.733000000
H    -3.260000000     5.508000000     4.870000000
H    -2.926000000     4.214000000     5.583000000
O     3.168000000     8.156000000    -0.790000000
H     2.737000000     7.392000000    -0.407000000
H     3.008000000     8.075000000    -1.731000000
O    -3.849000000     7.944000000     1.674000000
H    -3.854000000     7.794000000     0.729000000
H    -4.261000000     8.801000000     1.783000000
O    -0.040000000     5.186000000     5.544000000
H     0.405000000     6.025000000     5.665000000
H    -0.922000000     5.422000000     5.258000000
