215
-1461.90227
C     3.523000000    -0.538000000     3.504000000
H     4.106000000    -0.764000000     2.615000000
C     2.425000000    -1.372000000     3.880000000
C     1.613000000    -0.828000000     4.838000000
H     0.661000000    -1.224000000     5.184000000
C     1.796000000    -2.397000000     2.968000000
O     2.795000000    -3.349000000     2.415000000
H     1.363000000    -1.835000000     2.128000000
O     0.848000000    -3.233000000     3.576000000
C    -0.270000000    -3.559000000     2.953000000
C    -1.351000000    -2.780000000     3.342000000
H    -1.318000000    -2.061000000     4.157000000
C    -2.483000000    -2.858000000     2.562000000
O    -3.513000000    -2.012000000     2.807000000
C    -2.575000000    -3.745000000     1.481000000
C    -3.824000000    -3.917000000     0.585000000
H    -4.007000000    -4.954000000     0.296000000
C    -3.841000000    -2.876000000    -0.439000000
C    -3.259000000    -3.211000000    -1.642000000
H    -2.769000000    -4.167000000    -1.804000000
H    -4.652000000    -3.626000000     1.234000000
C    -1.522000000    -4.658000000     1.268000000
H    -1.675000000    -5.494000000     0.590000000
C    -0.336000000    -4.462000000     1.917000000
C     0.872000000    -5.317000000     1.547000000
H     0.666000000    -6.331000000     1.196000000
H     1.388000000    -5.438000000     2.501000000
C     1.767000000    -4.573000000     0.542000000
C     1.674000000    -4.727000000    -0.828000000
H     0.964000000    -5.418000000    -1.276000000
C     2.653000000    -3.664000000     1.048000000
C     3.548000000    -3.047000000     0.123000000
H     4.295000000    -2.353000000     0.500000000
C     3.430000000    -3.176000000    -1.234000000
O     4.027000000    -2.143000000    -1.965000000
C     3.246000000    -1.014000000    -2.383000000
C     4.070000000     0.249000000    -2.315000000
C     3.519000000     1.403000000    -2.938000000
H     2.563000000     1.269000000    -3.438000000
C     5.179000000     0.451000000    -1.488000000
H     5.517000000    -0.447000000    -0.978000000
O     2.870000000    -1.226000000    -3.724000000
H     2.374000000    -0.902000000    -1.722000000
C     2.434000000    -4.039000000    -1.708000000
C     2.023000000    -4.140000000    -3.154000000
H     1.554000000    -5.121000000    -3.257000000
H     2.941000000    -4.124000000    -3.745000000
C     1.100000000    -3.025000000    -3.565000000
C    -0.281000000    -3.330000000    -3.554000000
H    -0.582000000    -4.330000000    -3.253000000
C     1.571000000    -1.718000000    -3.834000000
C     0.619000000    -0.787000000    -4.211000000
H     0.853000000     0.275000000    -4.184000000
C    -0.760000000    -1.117000000    -4.341000000
O    -1.609000000    -0.080000000    -4.616000000
C    -2.269000000     0.580000000    -3.521000000
C    -2.378000000     2.076000000    -3.792000000
C    -1.408000000     2.700000000    -4.541000000
H    -0.584000000     2.096000000    -4.913000000
C    -3.467000000     2.818000000    -3.296000000
H    -4.294000000     2.327000000    -2.789000000
O    -3.560000000    -0.029000000    -3.531000000
H    -1.582000000     0.323000000    -2.701000000
C    -1.236000000    -2.441000000    -4.049000000
C    -2.732000000    -2.731000000    -4.070000000
H    -2.876000000    -3.780000000    -4.340000000
H    -3.225000000    -2.149000000    -4.851000000
C    -3.328000000    -2.314000000    -2.728000000
C    -3.756000000    -0.947000000    -2.494000000
C    -4.278000000    -0.598000000    -1.305000000
H    -4.633000000     0.391000000    -1.029000000
C    -4.316000000    -1.551000000    -0.253000000
O    -4.717000000    -1.081000000     0.963000000
C    -3.597000000    -0.909000000     1.827000000
H    -2.637000000    -0.780000000     1.306000000
C    -3.740000000     0.469000000     2.543000000
C    -3.547000000     0.650000000     3.918000000
H    -3.476000000    -0.151000000     4.649000000
C    -4.058000000     1.599000000     1.796000000
H    -4.089000000     1.556000000     0.710000000
C    -4.135000000     2.888000000     2.347000000
O    -4.177000000     3.953000000     1.462000000
C    -3.667000000     2.996000000     3.641000000
H    -3.583000000     4.005000000     4.036000000
C    -3.623000000     1.934000000     4.505000000
O    -3.301000000     2.039000000     5.838000000
C    -2.326000000     1.277000000     6.497000000
C    -0.981000000     1.381000000     6.209000000
H    -0.647000000     2.103000000     5.468000000
C    -2.746000000     0.306000000     7.384000000
H    -3.807000000     0.277000000     7.621000000
C    -1.871000000    -0.542000000     8.082000000
H    -2.144000000    -1.422000000     8.659000000
C    -0.493000000    -0.275000000     7.882000000
H     0.230000000    -0.823000000     8.482000000
C    -0.079000000     0.653000000     6.956000000
O     1.239000000     0.762000000     6.724000000
C     1.996000000     0.290000000     5.679000000
C     3.211000000     0.893000000     5.461000000
H     3.424000000     1.807000000     6.009000000
C     3.985000000     0.548000000     4.322000000
O     5.186000000     1.142000000     4.053000000
C     6.083000000     0.748000000     3.068000000
C     5.963000000     1.221000000     1.780000000
H     5.119000000     1.832000000     1.469000000
C     7.274000000     0.175000000     3.413000000
H     7.492000000    -0.022000000     4.459000000
C     8.320000000     0.101000000     2.496000000
H     9.295000000    -0.337000000     2.694000000
C     8.172000000     0.528000000     1.158000000
H     8.981000000     0.476000000     0.434000000
C     7.012000000     1.136000000     0.839000000
O     6.911000000     1.678000000    -0.418000000
C     5.783000000     1.640000000    -1.257000000
C     5.278000000     2.738000000    -1.948000000
H     5.608000000     3.743000000    -1.698000000
C     4.175000000     2.595000000    -2.756000000
O     3.578000000     3.659000000    -3.331000000
C     2.828000000     3.633000000    -4.445000000
C     1.566000000     4.203000000    -4.438000000
H     1.174000000     4.652000000    -3.529000000
C     3.422000000     3.129000000    -5.602000000
H     4.437000000     2.741000000    -5.606000000
C     2.691000000     3.266000000    -6.779000000
H     3.051000000     2.836000000    -7.710000000
C     1.367000000     3.713000000    -6.764000000
H     0.844000000     3.692000000    -7.717000000
C     0.831000000     4.219000000    -5.587000000
O    -0.461000000     4.706000000    -5.518000000
C    -1.506000000     4.070000000    -4.768000000
C    -2.522000000     4.868000000    -4.269000000
H    -2.543000000     5.945000000    -4.421000000
C    -3.547000000     4.217000000    -3.478000000
O    -4.620000000     4.880000000    -3.000000000
C    -5.301000000     4.420000000    -1.896000000
C    -6.559000000     3.730000000    -2.017000000
H    -7.011000000     3.514000000    -2.981000000
C    -7.039000000     3.208000000    -0.821000000
H    -7.892000000     2.536000000    -0.782000000
C    -6.325000000     3.331000000     0.410000000
H    -6.745000000     2.835000000     1.281000000
C    -5.089000000     3.979000000     0.410000000
C    -4.608000000     4.475000000    -0.718000000
H    -3.580000000     4.828000000    -0.707000000
C    -0.117000000     2.381000000    -0.155000000
H     0.091000000     3.228000000    -0.804000000
C     0.108000000     1.119000000    -0.623000000
H     0.345000000     1.048000000    -1.681000000
C    -0.007000000     0.066000000     0.237000000
H     0.180000000    -0.939000000    -0.050000000
C    -0.370000000     0.269000000     1.579000000
H    -0.481000000    -0.636000000     2.171000000
C    -0.468000000     1.554000000     2.096000000
H    -0.678000000     1.589000000     3.162000000
C    -0.380000000     2.666000000     1.229000000
C    -0.620000000     4.105000000     1.686000000
O    -0.435000000     4.385000000     2.878000000
O    -0.729000000     4.999000000     0.896000000
O     3.815000000     7.140000000     1.393000000
H     4.004000000     6.211000000     1.526000000
H     2.895000000     7.162000000     1.128000000
O     3.691000000     7.203000000     5.662000000
H     2.750000000     7.346000000     5.561000000
H     4.083000000     7.641000000     4.907000000
O     2.267000000     4.700000000    -0.083000000
H     2.547000000     3.914000000     0.385000000
H     1.454000000     4.960000000     0.350000000
O     0.865000000     7.172000000     1.561000000
H     0.363000000     7.773000000     1.011000000
H     0.402000000     6.338000000     1.491000000
O    -1.026000000     5.997000000    -1.582000000
H    -1.002000000     5.443000000    -0.802000000
H    -1.060000000     6.891000000    -1.240000000
O    -3.206000000     8.733000000    -0.739000000
H    -3.984000000     8.176000000    -0.774000000
H    -3.516000000     9.556000000    -0.362000000
O     1.599000000     3.343000000     4.410000000
H     0.856000000     3.871000000     4.118000000
H     2.015000000     3.871000000     5.092000000
O     0.983000000     7.387000000     4.587000000
H     1.504000000     7.131000000     3.826000000
H     0.133000000     7.634000000     4.223000000
O    -2.798000000     6.501000000     1.833000000
H    -3.662000000     6.091000000     1.857000000
H    -2.247000000     5.872000000     1.368000000
O     4.086000000     6.037000000    -1.580000000
H     3.633000000     5.578000000    -0.872000000
H     3.686000000     5.695000000    -2.380000000
O    -3.598000000     6.757000000     6.149000000
H    -4.135000000     7.425000000     5.724000000
H    -2.809000000     6.705000000     5.609000000
O     2.737000000     2.828000000     1.789000000
H     2.084000000     2.180000000     1.523000000
H     2.335000000     3.285000000     2.528000000
O    -1.719000000     6.049000000     4.210000000
H    -2.229000000     6.305000000     3.442000000
H    -1.110000000     5.387000000     3.883000000
O    -0.533000000     8.815000000    -0.080000000
H    -1.450000000     8.660000000    -0.309000000
H    -0.458000000     9.768000000    -0.024000000
O     2.638000000     9.080000000    -0.861000000
H     2.308000000     8.751000000    -0.025000000
H     2.999000000     8.309000000    -1.297000000
O     4.690000000     4.548000000     1.900000000
H     4.234000000     3.903000000     1.360000000
H     4.683000000     4.171000000     2.780000000
O    -0.650000000     5.942000000     6.704000000
H    -0.118000000     6.325000000     6.006000000
H    -1.513000000     5.819000000     6.307000000
O    -3.639000000     8.904000000     2.666000000
H    -3.096000000     8.299000000     2.161000000
H    -3.762000000     9.656000000     2.087000000
O     3.256000000     4.679000000     6.086000000
H     3.480000000     5.590000000     5.893000000
H     2.698000000     4.730000000     6.863000000
