215
-1437.66396
C    -4.966000000    -0.092000000    -1.848000000
H    -4.500000000     0.138000000    -2.803000000
C    -4.750000000     0.775000000    -0.736000000
C    -5.340000000     0.376000000     0.443000000
H    -5.225000000     0.993000000     1.330000000
C    -3.835000000     1.978000000    -0.827000000
O    -3.729000000     2.575000000    -2.144000000
H    -2.801000000     1.715000000    -0.557000000
O    -4.229000000     3.041000000     0.010000000
C    -3.118000000     3.584000000     0.737000000
C    -2.744000000     3.096000000     1.977000000
H    -3.353000000     2.345000000     2.474000000
C    -1.575000000     3.379000000     2.605000000
O    -1.264000000     2.644000000     3.733000000
C    -0.653000000     4.280000000     2.019000000
C     0.677000000     4.539000000     2.724000000
H     1.017000000     5.538000000     2.444000000
C     1.750000000     3.475000000     2.475000000
C     2.709000000     3.710000000     1.521000000
H     2.655000000     4.635000000     0.952000000
H     0.532000000     4.476000000     3.804000000
C    -0.973000000     4.861000000     0.764000000
H    -0.117000000     5.372000000     0.331000000
C    -2.200000000     4.557000000     0.139000000
C    -2.369000000     5.054000000    -1.243000000
H    -1.970000000     6.070000000    -1.198000000
H    -3.443000000     5.230000000    -1.330000000
C    -1.859000000     4.111000000    -2.324000000
C    -0.559000000     4.340000000    -2.835000000
H     0.025000000     5.129000000    -2.367000000
C    -2.463000000     2.887000000    -2.668000000
C    -1.870000000     2.009000000    -3.535000000
H    -2.274000000     1.040000000    -3.814000000
C    -0.595000000     2.277000000    -3.995000000
O    -0.041000000     1.303000000    -4.827000000
C     0.940000000     0.424000000    -4.254000000
C     0.710000000    -1.047000000    -4.672000000
C     1.736000000    -1.977000000    -4.718000000
H     2.784000000    -1.689000000    -4.704000000
C    -0.582000000    -1.513000000    -4.862000000
H    -1.437000000    -0.846000000    -4.934000000
O     2.164000000     0.933000000    -4.547000000
H     0.720000000     0.418000000    -3.176000000
C     0.036000000     3.467000000    -3.762000000
C     1.532000000     3.653000000    -4.020000000
H     1.716000000     4.717000000    -3.855000000
H     1.732000000     3.366000000    -5.055000000
C     2.495000000     2.809000000    -3.128000000
C     3.046000000     3.334000000    -1.917000000
H     2.774000000     4.349000000    -1.637000000
C     2.781000000     1.515000000    -3.502000000
C     3.663000000     0.701000000    -2.713000000
H     3.984000000    -0.316000000    -2.924000000
C     4.239000000     1.265000000    -1.515000000
O     4.952000000     0.422000000    -0.691000000
C     4.269000000    -0.062000000     0.544000000
C     4.466000000    -1.522000000     0.934000000
C     4.666000000    -2.486000000    -0.077000000
H     4.686000000    -2.136000000    -1.105000000
C     4.338000000    -2.004000000     2.319000000
H     4.093000000    -1.403000000     3.191000000
O     4.767000000     0.702000000     1.688000000
H     3.214000000     0.216000000     0.403000000
C     3.974000000     2.595000000    -1.135000000
C     4.651000000     3.127000000     0.132000000
H     4.789000000     4.208000000     0.209000000
H     5.650000000     2.686000000     0.138000000
C     3.784000000     2.834000000     1.305000000
C     3.945000000     1.718000000     2.094000000
C     2.976000000     1.473000000     3.025000000
H     2.948000000     0.579000000     3.644000000
C     1.865000000     2.274000000     3.163000000
O     0.925000000     1.960000000     4.107000000
C    -0.359000000     1.558000000     3.652000000
H    -0.423000000     1.135000000     2.639000000
C    -0.810000000     0.386000000     4.515000000
C    -2.157000000     0.229000000     4.755000000
H    -2.884000000     0.813000000     4.197000000
C     0.103000000    -0.552000000     4.969000000
H     1.154000000    -0.497000000     4.698000000
C    -0.291000000    -1.529000000     5.947000000
O     0.510000000    -2.431000000     6.564000000
C    -1.676000000    -1.655000000     6.194000000
H    -2.090000000    -2.367000000     6.904000000
C    -2.618000000    -0.849000000     5.521000000
O    -3.999000000    -0.993000000     5.796000000
C    -5.020000000    -0.426000000     5.012000000
C    -5.356000000    -1.124000000     3.853000000
H    -4.872000000    -2.070000000     3.625000000
C    -5.547000000     0.803000000     5.355000000
H    -5.035000000     1.399000000     6.106000000
C    -6.606000000     1.311000000     4.584000000
H    -7.034000000     2.276000000     4.844000000
C    -7.008000000     0.582000000     3.417000000
H    -7.793000000     0.991000000     2.786000000
C    -6.352000000    -0.623000000     3.034000000
O    -6.511000000    -1.249000000     1.857000000
C    -6.049000000    -0.791000000     0.631000000
C    -6.187000000    -1.594000000    -0.490000000
H    -6.790000000    -2.484000000    -0.331000000
C    -5.733000000    -1.252000000    -1.746000000
O    -6.082000000    -1.975000000    -2.868000000
C    -5.322000000    -2.182000000    -4.020000000
C    -3.970000000    -2.654000000    -3.924000000
H    -3.497000000    -2.790000000    -2.955000000
C    -5.897000000    -1.932000000    -5.232000000
H    -6.907000000    -1.565000000    -5.392000000
C    -5.187000000    -1.998000000    -6.442000000
H    -5.630000000    -1.736000000    -7.400000000
C    -3.878000000    -2.588000000    -6.351000000
H    -3.255000000    -2.882000000    -7.191000000
C    -3.308000000    -2.884000000    -5.081000000
O    -2.051000000    -3.517000000    -4.978000000
C    -0.810000000    -2.916000000    -4.999000000
C     0.267000000    -3.820000000    -5.174000000
H     0.050000000    -4.885000000    -5.217000000
C     1.571000000    -3.320000000    -5.039000000
O     2.643000000    -4.214000000    -5.162000000
C     3.745000000    -4.188000000    -4.382000000
C     3.724000000    -4.534000000    -3.004000000
H     2.829000000    -4.908000000    -2.513000000
C     4.924000000    -3.766000000    -5.009000000
H     4.920000000    -3.460000000    -6.052000000
C     6.099000000    -3.728000000    -4.242000000
H     7.069000000    -3.603000000    -4.717000000
C     6.119000000    -4.070000000    -2.886000000
H     7.062000000    -3.936000000    -2.361000000
C     4.959000000    -4.473000000    -2.263000000
O     4.978000000    -4.784000000    -0.864000000
C     4.805000000    -3.845000000     0.143000000
C     4.674000000    -4.278000000     1.484000000
H     4.648000000    -5.343000000     1.701000000
C     4.386000000    -3.394000000     2.519000000
O     4.086000000    -3.979000000     3.764000000
C     3.592000000    -3.276000000     4.875000000
C     4.462000000    -2.719000000     5.794000000
H     5.480000000    -2.906000000     5.463000000
C     4.063000000    -2.050000000     6.953000000
H     4.823000000    -1.524000000     7.523000000
C     2.712000000    -1.944000000     7.173000000
H     2.384000000    -1.375000000     8.040000000
C     1.835000000    -2.480000000     6.289000000
C     2.282000000    -3.114000000     5.121000000
H     1.551000000    -3.651000000     4.522000000
C     0.428000000    -2.873000000    -0.978000000
H     1.207000000    -3.625000000    -1.074000000
C     0.825000000    -1.545000000    -0.801000000
H     1.844000000    -1.228000000    -1.009000000
C    -0.137000000    -0.540000000    -0.516000000
H     0.211000000     0.527000000    -0.344000000
C    -1.470000000    -0.939000000    -0.310000000
H    -2.229000000    -0.217000000    -0.020000000
C    -1.815000000    -2.292000000    -0.460000000
H    -2.803000000    -2.701000000    -0.260000000
C    -0.921000000    -3.220000000    -0.805000000
C    -1.271000000    -4.630000000    -0.998000000
O    -2.442000000    -4.968000000    -0.671000000
O    -0.532000000    -5.507000000    -1.316000000
O    -1.481000000    -9.639000000    -4.144000000
H    -0.994000000    -9.009000000    -3.614000000
H    -2.304000000    -9.766000000    -3.672000000
O     3.478000000    -7.569000000    -0.713000000
H     3.294000000    -7.543000000    -1.652000000
H     2.647000000    -7.332000000    -0.300000000
O    -1.343000000    -7.199000000     4.464000000
H    -1.789000000    -6.458000000     4.052000000
H    -1.697000000    -7.969000000     4.019000000
O    -4.965000000    -5.938000000    -1.640000000
H    -4.094000000    -5.541000000    -1.652000000
H    -5.183000000    -6.066000000    -2.563000000
O    -5.461000000    -5.918000000    -4.651000000
H    -6.100000000    -5.221000000    -4.497000000
H    -5.991000000    -6.685000000    -4.865000000
O     0.111000000    -7.424000000    -2.986000000
H     0.083000000    -6.755000000    -2.303000000
H     0.997000000    -7.362000000    -3.345000000
O    -2.019000000    -7.726000000    -0.126000000
H    -1.131000000    -7.388000000    -0.242000000
H    -2.582000000    -7.067000000    -0.532000000
O    -0.122000000    -7.345000000    -6.007000000
H    -0.360000000    -7.410000000    -5.082000000
H    -0.891000000    -6.960000000    -6.426000000
O     2.862000000    -8.104000000    -3.285000000
H     3.177000000    -7.972000000    -4.179000000
H     2.733000000    -9.050000000    -3.214000000
O    -6.506000000    -6.151000000     0.692000000
H    -6.175000000    -6.027000000    -0.198000000
H    -7.432000000    -6.365000000     0.575000000
O     1.064000000    -7.042000000     0.183000000
H     0.542000000    -6.270000000    -0.033000000
H     1.431000000    -6.850000000     1.046000000
O    -2.851000000    -4.747000000     3.476000000
H    -3.424000000    -4.690000000     4.240000000
H    -3.406000000    -4.489000000     2.740000000
O    -4.918000000    -7.162000000     2.983000000
H    -5.407000000    -6.504000000     2.488000000
H    -5.417000000    -7.272000000     3.793000000
O    -4.512000000    -8.703000000    -0.443000000
H    -3.565000000    -8.579000000    -0.381000000
H    -4.883000000    -7.870000000    -0.151000000
O    -4.272000000    -4.320000000     1.203000000
H    -4.860000000    -4.449000000     0.459000000
H    -3.445000000    -4.716000000     0.927000000
O    -2.912000000    -6.433000000    -4.876000000
H    -3.828000000    -6.201000000    -5.032000000
H    -2.602000000    -5.776000000    -4.253000000
O     0.051000000    -9.869000000    -0.831000000
H    -0.833000000   -10.025000000    -1.164000000
H     0.165000000    -8.920000000    -0.889000000
O    -0.273000000    -3.813000000     2.849000000
H    -0.877000000    -4.285000000     3.422000000
H    -0.831000000    -3.445000000     2.163000000
O     1.869000000    -5.591000000     2.245000000
H     2.562000000    -4.966000000     2.031000000
H     1.098000000    -5.047000000     2.408000000
