215
-1459.45129
C     2.787000000     0.564000000     4.663000000
H     3.673000000     0.008000000     4.366000000
C     1.645000000    -0.145000000     4.538000000
C     0.475000000     0.504000000     4.883000000
H    -0.511000000     0.048000000     4.830000000
C     1.580000000    -1.362000000     3.608000000
O     2.757000000    -2.160000000     3.678000000
H     1.440000000    -1.052000000     2.562000000
O     0.489000000    -2.241000000     4.011000000
C    -0.319000000    -2.908000000     3.167000000
C    -1.589000000    -2.383000000     3.098000000
H    -1.848000000    -1.445000000     3.583000000
C    -2.497000000    -2.975000000     2.219000000
O    -3.718000000    -2.309000000     2.192000000
C    -2.200000000    -4.142000000     1.503000000
C    -3.174000000    -4.674000000     0.527000000
H    -2.861000000    -5.705000000     0.350000000
C    -3.145000000    -3.843000000    -0.744000000
C    -2.145000000    -4.135000000    -1.699000000
H    -1.537000000    -5.021000000    -1.540000000
H    -4.173000000    -4.818000000     0.945000000
C    -0.832000000    -4.643000000     1.672000000
H    -0.572000000    -5.552000000     1.136000000
C     0.081000000    -4.052000000     2.521000000
C     1.428000000    -4.677000000     2.767000000
H     1.483000000    -5.723000000     2.457000000
H     1.623000000    -4.692000000     3.841000000
C     2.517000000    -3.833000000     1.997000000
C     2.673000000    -4.246000000     0.674000000
H     2.142000000    -5.111000000     0.284000000
C     3.134000000    -2.685000000     2.425000000
C     3.949000000    -1.940000000     1.634000000
H     4.412000000    -1.056000000     2.066000000
C     4.120000000    -2.268000000     0.308000000
O     4.754000000    -1.329000000    -0.455000000
C     3.895000000    -0.498000000    -1.295000000
C     4.251000000     1.005000000    -1.200000000
C     4.107000000     1.840000000    -2.361000000
H     3.633000000     1.400000000    -3.234000000
C     4.975000000     1.545000000    -0.061000000
H     5.147000000     0.862000000     0.767000000
O     3.935000000    -1.035000000    -2.681000000
H     2.865000000    -0.550000000    -0.913000000
C     3.449000000    -3.448000000    -0.214000000
C     3.532000000    -3.884000000    -1.644000000
H     3.398000000    -4.955000000    -1.812000000
H     4.571000000    -3.653000000    -1.887000000
C     2.601000000    -3.106000000    -2.582000000
C     1.444000000    -3.780000000    -2.978000000
H     1.261000000    -4.725000000    -2.473000000
C     2.825000000    -1.778000000    -3.081000000
C     1.938000000    -1.119000000    -3.922000000
H     2.101000000    -0.132000000    -4.346000000
C     0.747000000    -1.762000000    -4.199000000
O    -0.247000000    -1.082000000    -4.744000000
C    -1.304000000    -0.465000000    -3.917000000
C    -1.644000000     0.929000000    -4.308000000
C    -0.587000000     1.763000000    -4.702000000
H     0.399000000     1.316000000    -4.598000000
C    -2.929000000     1.465000000    -4.175000000
H    -3.687000000     0.849000000    -3.698000000
O    -2.526000000    -1.245000000    -4.009000000
H    -1.032000000    -0.454000000    -2.852000000
C     0.468000000    -3.056000000    -3.696000000
C    -0.874000000    -3.746000000    -3.880000000
H    -0.723000000    -4.827000000    -3.855000000
H    -1.267000000    -3.440000000    -4.852000000
C    -1.940000000    -3.345000000    -2.859000000
C    -2.783000000    -2.191000000    -2.982000000
C    -3.707000000    -1.875000000    -1.979000000
H    -4.235000000    -0.928000000    -1.916000000
C    -3.920000000    -2.720000000    -0.928000000
O    -4.752000000    -2.116000000     0.037000000
C    -3.950000000    -1.433000000     1.102000000
H    -3.063000000    -1.037000000     0.585000000
C    -4.569000000    -0.081000000     1.515000000
C    -4.579000000     0.369000000     2.813000000
H    -4.107000000    -0.304000000     3.525000000
C    -5.027000000     0.781000000     0.515000000
H    -4.959000000     0.564000000    -0.548000000
C    -5.674000000     2.049000000     0.899000000
O    -5.995000000     2.960000000    -0.114000000
C    -5.797000000     2.415000000     2.202000000
H    -6.143000000     3.400000000     2.505000000
C    -5.204000000     1.583000000     3.165000000
O    -5.145000000     2.047000000     4.452000000
C    -4.189000000     1.554000000     5.292000000
C    -2.908000000     2.135000000     5.300000000
H    -2.670000000     2.803000000     4.476000000
C    -4.359000000     0.446000000     6.156000000
H    -5.256000000    -0.167000000     6.189000000
C    -3.382000000     0.072000000     7.020000000
H    -3.494000000    -0.796000000     7.665000000
C    -2.126000000     0.664000000     7.013000000
H    -1.351000000     0.282000000     7.672000000
C    -1.841000000     1.642000000     6.020000000
O    -0.645000000     2.313000000     5.970000000
C     0.514000000     1.688000000     5.563000000
C     1.685000000     2.439000000     5.550000000
H     1.791000000     3.418000000     6.009000000
C     2.848000000     1.883000000     5.056000000
O     4.045000000     2.550000000     5.204000000
C     5.045000000     2.508000000     4.283000000
C     5.009000000     2.937000000     2.918000000
H     4.141000000     3.396000000     2.451000000
C     6.183000000     1.849000000     4.798000000
H     6.167000000     1.392000000     5.784000000
C     7.335000000     1.733000000     4.020000000
H     8.227000000     1.292000000     4.457000000
C     7.343000000     2.169000000     2.696000000
H     8.209000000     2.046000000     2.051000000
C     6.239000000     2.815000000     2.184000000
O     6.333000000     3.316000000     0.883000000
C     5.392000000     2.862000000    -0.106000000
C     5.206000000     3.652000000    -1.194000000
H     5.680000000     4.626000000    -1.284000000
C     4.547000000     3.167000000    -2.338000000
O     4.373000000     4.025000000    -3.380000000
C     3.635000000     3.608000000    -4.456000000
C     2.353000000     4.014000000    -4.530000000
H     1.907000000     4.672000000    -3.789000000
C     4.213000000     2.701000000    -5.351000000
H     5.142000000     2.220000000    -5.056000000
C     3.548000000     2.414000000    -6.550000000
H     3.893000000     1.573000000    -7.147000000
C     2.151000000     2.821000000    -6.651000000
H     1.503000000     2.468000000    -7.449000000
C     1.573000000     3.621000000    -5.652000000
O     0.164000000     3.850000000    -5.720000000
C    -0.851000000     3.039000000    -5.163000000
C    -2.164000000     3.499000000    -5.205000000
H    -2.309000000     4.546000000    -5.460000000
C    -3.192000000     2.726000000    -4.649000000
O    -4.468000000     3.190000000    -4.665000000
C    -5.477000000     2.864000000    -3.778000000
C    -6.650000000     2.249000000    -4.194000000
H    -6.824000000     1.965000000    -5.229000000
C    -7.661000000     1.947000000    -3.323000000
H    -8.624000000     1.618000000    -3.705000000
C    -7.365000000     2.170000000    -1.993000000
H    -8.195000000     2.011000000    -1.309000000
C    -6.149000000     2.646000000    -1.479000000
C    -5.170000000     2.979000000    -2.410000000
H    -4.273000000     3.489000000    -2.067000000
C    -0.920000000     3.111000000    -0.911000000
H    -0.772000000     3.755000000    -1.774000000
C    -0.346000000     1.857000000    -0.954000000
H     0.318000000     1.624000000    -1.783000000
C    -0.571000000     0.944000000     0.039000000
H    -0.065000000     0.016000000     0.038000000
C    -1.449000000     1.277000000     1.080000000
H    -1.656000000     0.640000000     1.936000000
C    -1.944000000     2.622000000     1.180000000
H    -2.502000000     2.921000000     2.064000000
C    -1.750000000     3.554000000     0.188000000
C    -2.284000000     5.008000000     0.367000000
O    -2.908000000     5.418000000     1.326000000
O    -2.258000000     5.776000000    -0.566000000
O     2.811000000     7.456000000     1.329000000
H     2.063000000     8.046000000     1.233000000
H     2.583000000     6.899000000     2.073000000
O     2.075000000     5.408000000    -1.267000000
H     2.057000000     6.001000000    -0.516000000
H     3.005000000     5.292000000    -1.459000000
O    -0.453000000     6.352000000    -2.538000000
H     0.330000000     6.141000000    -2.029000000
H    -1.177000000     6.231000000    -1.925000000
O    -4.114000000     6.337000000    -2.213000000
H    -3.311000000     6.151000000    -1.724000000
H    -3.966000000     7.201000000    -2.597000000
O     0.212000000     5.548000000     4.803000000
H    -0.142000000     4.753000000     5.202000000
H    -0.558000000     6.028000000     4.501000000
O    -2.485000000     5.664000000     3.880000000
H    -3.201000000     5.251000000     4.364000000
H    -2.767000000     5.637000000     2.966000000
O     2.344000000     5.522000000     3.145000000
H     2.144000000     4.673000000     2.749000000
H     1.676000000     5.634000000     3.821000000
O    -4.897000000     7.030000000     0.876000000
H    -4.229000000     6.392000000     1.123000000
H    -4.730000000     7.206000000    -0.050000000
O    -6.751000000     6.657000000    -3.119000000
H    -6.915000000     7.542000000    -2.792000000
H    -5.845000000     6.473000000    -2.870000000
O    -7.360000000     5.786000000     0.250000000
H    -6.516000000     6.183000000     0.462000000
H    -7.157000000     5.132000000    -0.418000000
O    -0.824000000     9.408000000    -2.279000000
H    -0.275000000     8.662000000    -2.520000000
H    -1.184000000     9.175000000    -1.423000000
O     1.134000000     3.870000000     1.353000000
H     1.363000000     4.031000000     0.438000000
H     0.248000000     3.507000000     1.317000000
O    -1.593000000     8.426000000     3.536000000
H    -1.779000000     8.665000000     2.628000000
H    -1.924000000     7.532000000     3.621000000
O    -3.834000000     8.869000000    -2.668000000
H    -4.275000000     9.513000000    -2.114000000
H    -2.949000000     9.216000000    -2.781000000
O    -6.532000000     8.039000000     2.797000000
H    -6.907000000     8.755000000     2.285000000
H    -5.833000000     7.689000000     2.245000000
O     0.918000000     9.206000000     0.779000000
H     0.003000000     8.926000000     0.780000000
H     1.032000000     9.648000000    -0.062000000
O    -1.763000000     8.447000000     0.666000000
H    -2.494000000     9.038000000     0.845000000
H    -2.174000000     7.657000000     0.316000000
O    -3.610000000    10.020000000     1.772000000
H    -3.643000000    10.972000000     1.677000000
H    -4.114000000     9.841000000     2.565000000
O    -0.238000000     7.090000000    -5.169000000
H     0.697000000     6.944000000    -5.310000000
H    -0.373000000     6.902000000    -4.240000000
