215
-1474.63929
C    -4.637000000    -0.095000000    -1.799000000
H    -4.158000000     0.182000000    -2.735000000
C    -4.511000000     0.757000000    -0.674000000
C    -5.061000000     0.318000000     0.506000000
H    -4.934000000     0.860000000     1.440000000
C    -3.613000000     2.011000000    -0.707000000
O    -3.786000000     2.771000000    -1.966000000
H    -2.591000000     1.605000000    -0.691000000
O    -3.869000000     2.913000000     0.397000000
C    -2.715000000     3.315000000     1.067000000
C    -2.485000000     2.890000000     2.344000000
H    -3.093000000     2.169000000     2.885000000
C    -1.276000000     3.255000000     2.938000000
O    -0.992000000     2.589000000     4.113000000
C    -0.403000000     4.209000000     2.387000000
C     0.818000000     4.637000000     3.193000000
H     1.063000000     5.628000000     2.806000000
C     1.943000000     3.626000000     2.834000000
C     2.753000000     3.901000000     1.716000000
H     2.758000000     4.858000000     1.201000000
H     0.504000000     4.583000000     4.238000000
C    -0.715000000     4.710000000     1.138000000
H    -0.073000000     5.477000000     0.711000000
C    -1.867000000     4.252000000     0.471000000
C    -2.234000000     4.905000000    -0.953000000
H    -1.699000000     5.851000000    -1.057000000
H    -3.284000000     5.171000000    -1.095000000
C    -1.786000000     4.042000000    -2.122000000
C    -0.502000000     4.218000000    -2.669000000
H     0.091000000     5.013000000    -2.224000000
C    -2.577000000     3.040000000    -2.621000000
C    -2.137000000     2.192000000    -3.558000000
H    -2.802000000     1.404000000    -3.902000000
C    -0.874000000     2.322000000    -4.075000000
O    -0.400000000     1.272000000    -4.783000000
C     0.457000000     0.254000000    -4.278000000
C     0.268000000    -1.125000000    -4.857000000
C     1.132000000    -2.244000000    -4.593000000
H     1.980000000    -2.040000000    -3.943000000
C    -0.991000000    -1.381000000    -5.471000000
H    -1.740000000    -0.594000000    -5.502000000
O     1.836000000     0.750000000    -4.429000000
H     0.286000000     0.252000000    -3.191000000
C    -0.056000000     3.387000000    -3.693000000
C     1.356000000     3.629000000    -4.198000000
H     1.665000000     4.672000000    -4.292000000
H     1.421000000     3.226000000    -5.210000000
C     2.240000000     2.787000000    -3.247000000
C     2.848000000     3.347000000    -2.111000000
H     2.791000000     4.423000000    -1.967000000
C     2.406000000     1.436000000    -3.414000000
C     3.288000000     0.700000000    -2.562000000
H     3.258000000    -0.378000000    -2.697000000
C     4.014000000     1.338000000    -1.552000000
O     4.809000000     0.493000000    -0.848000000
C     4.270000000     0.001000000     0.363000000
C     4.576000000    -1.474000000     0.662000000
C     4.317000000    -2.459000000    -0.273000000
H     3.950000000    -2.084000000    -1.225000000
C     4.834000000    -1.861000000     1.979000000
H     5.038000000    -1.094000000     2.722000000
O     4.725000000     0.825000000     1.456000000
H     3.184000000    -0.005000000     0.183000000
C     3.775000000     2.702000000    -1.267000000
C     4.470000000     3.285000000    -0.056000000
H     4.500000000     4.367000000    -0.201000000
H     5.510000000     2.962000000     0.031000000
C     3.647000000     2.956000000     1.222000000
C     3.840000000     1.762000000     1.904000000
C     3.065000000     1.474000000     3.070000000
H     3.214000000     0.516000000     3.562000000
C     2.134000000     2.401000000     3.503000000
O     1.273000000     1.922000000     4.513000000
C    -0.025000000     1.488000000     4.071000000
H     0.025000000     1.189000000     3.014000000
C    -0.448000000     0.297000000     4.940000000
C    -1.785000000    -0.054000000     5.057000000
H    -2.589000000     0.540000000     4.629000000
C     0.479000000    -0.632000000     5.423000000
H     1.533000000    -0.463000000     5.215000000
C     0.198000000    -1.823000000     6.116000000
O     1.178000000    -2.616000000     6.646000000
C    -1.212000000    -2.135000000     6.155000000
H    -1.532000000    -3.042000000     6.662000000
C    -2.164000000    -1.265000000     5.656000000
O    -3.509000000    -1.617000000     5.840000000
C    -4.562000000    -1.043000000     5.166000000
C    -4.633000000    -1.394000000     3.832000000
H    -3.846000000    -1.976000000     3.358000000
C    -5.537000000    -0.254000000     5.811000000
H    -5.426000000     0.015000000     6.859000000
C    -6.626000000     0.188000000     5.074000000
H    -7.423000000     0.759000000     5.542000000
C    -6.765000000    -0.103000000     3.708000000
H    -7.649000000     0.188000000     3.147000000
C    -5.767000000    -0.919000000     3.119000000
O    -6.147000000    -1.404000000     1.858000000
C    -5.732000000    -0.919000000     0.624000000
C    -5.947000000    -1.682000000    -0.496000000
H    -6.389000000    -2.665000000    -0.358000000
C    -5.399000000    -1.260000000    -1.745000000
O    -5.614000000    -2.074000000    -2.855000000
C    -5.219000000    -1.842000000    -4.182000000
C    -4.081000000    -2.502000000    -4.704000000
H    -3.497000000    -3.216000000    -4.130000000
C    -5.893000000    -0.854000000    -4.964000000
H    -6.715000000    -0.277000000    -4.548000000
C    -5.467000000    -0.601000000    -6.243000000
H    -5.921000000     0.155000000    -6.879000000
C    -4.325000000    -1.300000000    -6.735000000
H    -3.939000000    -1.090000000    -7.730000000
C    -3.663000000    -2.236000000    -5.958000000
O    -2.535000000    -2.926000000    -6.489000000
C    -1.292000000    -2.657000000    -6.007000000
C    -0.379000000    -3.677000000    -5.801000000
H    -0.578000000    -4.718000000    -6.043000000
C     0.830000000    -3.488000000    -5.150000000
O     1.666000000    -4.559000000    -5.048000000
C     2.883000000    -4.418000000    -4.336000000
C     2.860000000    -4.625000000    -2.999000000
H     1.929000000    -4.866000000    -2.493000000
C     4.074000000    -4.026000000    -4.999000000
H     4.035000000    -3.946000000    -6.082000000
C     5.243000000    -3.779000000    -4.330000000
H     6.165000000    -3.628000000    -4.887000000
C     5.288000000    -4.180000000    -2.946000000
H     6.213000000    -4.105000000    -2.381000000
C     4.085000000    -4.489000000    -2.306000000
O     4.082000000    -4.772000000    -0.953000000
C     4.447000000    -3.800000000     0.030000000
C     4.610000000    -4.179000000     1.343000000
H     4.608000000    -5.233000000     1.608000000
C     4.780000000    -3.216000000     2.346000000
O     4.878000000    -3.661000000     3.606000000
C     4.350000000    -3.040000000     4.703000000
C     5.204000000    -2.228000000     5.449000000
H     6.234000000    -2.231000000     5.103000000
C     4.669000000    -1.603000000     6.596000000
H     5.325000000    -1.015000000     7.233000000
C     3.350000000    -1.837000000     6.961000000
H     2.949000000    -1.413000000     7.878000000
C     2.493000000    -2.562000000     6.175000000
C     2.960000000    -3.122000000     5.003000000
H     2.172000000    -3.537000000     4.380000000
C    -0.916000000    -2.578000000    -1.797000000
H    -0.542000000    -3.334000000    -2.482000000
C    -0.156000000    -1.449000000    -1.467000000
H     0.760000000    -1.303000000    -2.034000000
C    -0.448000000    -0.575000000    -0.458000000
H     0.061000000     0.308000000    -0.260000000
C    -1.560000000    -0.884000000     0.300000000
H    -1.835000000    -0.105000000     1.007000000
C    -2.347000000    -1.966000000     0.069000000
H    -3.255000000    -2.031000000     0.663000000
C    -2.031000000    -2.883000000    -0.948000000
C    -2.825000000    -4.114000000    -1.129000000
O    -3.544000000    -4.487000000    -0.214000000
O    -2.409000000    -4.945000000    -1.934000000
O    -2.342000000    -9.746000000    -2.766000000
H    -2.351000000   -10.251000000    -1.953000000
H    -1.955000000    -8.906000000    -2.521000000
O    -2.453000000    -6.221000000    -5.680000000
H    -2.907000000    -6.310000000    -4.842000000
H    -2.690000000    -5.347000000    -5.990000000
O    -8.281000000    -2.836000000    -2.240000000
H    -8.715000000    -2.570000000    -3.050000000
H    -7.357000000    -2.633000000    -2.385000000
O    -4.926000000    -6.752000000    -0.280000000
H    -4.251000000    -6.074000000    -0.310000000
H    -5.642000000    -6.401000000    -0.811000000
O    -2.646000000   -10.123000000     1.485000000
H    -2.463000000    -9.183000000     1.477000000
H    -2.209000000   -10.444000000     2.274000000
O    -6.534000000    -6.008000000    -3.088000000
H    -6.769000000    -5.207000000    -3.558000000
H    -7.118000000    -6.676000000    -3.448000000
O    -0.355000000    -6.386000000    -2.560000000
H    -1.062000000    -5.755000000    -2.424000000
H     0.277000000    -6.190000000    -1.869000000
O    -2.411000000    -7.846000000    -0.685000000
H    -3.261000000    -7.689000000    -0.274000000
H    -2.266000000    -7.076000000    -1.236000000
O     0.900000000    -8.732000000    -3.719000000
H     0.538000000    -9.297000000    -3.036000000
H     0.559000000    -7.861000000    -3.515000000
O    -6.905000000    -4.179000000     2.188000000
H    -6.881000000    -3.255000000     2.438000000
H    -7.819000000    -4.340000000     1.954000000
O     1.469000000    -6.055000000    -0.076000000
H     1.323000000    -5.167000000     0.249000000
H     2.422000000    -6.142000000    -0.112000000
O    -5.311000000    -6.256000000     3.017000000
H    -5.876000000    -5.514000000     2.801000000
H    -5.062000000    -6.622000000     2.169000000
O    -4.558000000    -9.440000000    -4.251000000
H    -4.761000000    -8.506000000    -4.196000000
H    -3.756000000    -9.541000000    -3.738000000
O    -5.133000000    -9.258000000     0.810000000
H    -4.194000000    -9.447000000     0.815000000
H    -5.191000000    -8.338000000     0.553000000
O    -2.699000000    -4.892000000     2.207000000
H    -3.485000000    -5.054000000     2.728000000
H    -3.030000000    -4.659000000     1.339000000
O    -3.822000000    -6.727000000    -3.352000000
H    -4.700000000    -6.348000000    -3.335000000
H    -3.277000000    -6.091000000    -2.888000000
O    -0.068000000    -8.438000000     0.324000000
H    -0.966000000    -8.254000000     0.050000000
H     0.330000000    -7.574000000     0.434000000
O    -2.199000000    -7.495000000     2.393000000
H    -2.208000000    -6.539000000     2.345000000
H    -2.290000000    -7.689000000     3.326000000
O    -0.216000000    -3.997000000     1.432000000
H    -1.018000000    -4.482000000     1.624000000
H    -0.491000000    -3.081000000     1.400000000
