215
-1437.58832
C     2.674000000    -3.288000000     3.932000000
H     3.331000000    -3.627000000     3.135000000
C     1.305000000    -3.237000000     3.609000000
C     0.449000000    -2.751000000     4.597000000
H    -0.616000000    -2.712000000     4.379000000
C     0.803000000    -3.757000000     2.287000000
O     1.673000000    -4.644000000     1.471000000
H     0.463000000    -2.869000000     1.734000000
O    -0.403000000    -4.541000000     2.519000000
C    -1.437000000    -4.316000000     1.626000000
C    -2.469000000    -3.437000000     1.931000000
H    -2.382000000    -2.791000000     2.801000000
C    -3.374000000    -3.003000000     1.038000000
O    -4.225000000    -1.959000000     1.522000000
C    -3.392000000    -3.561000000    -0.247000000
C    -4.383000000    -2.973000000    -1.226000000
H    -4.654000000    -3.762000000    -1.931000000
C    -3.973000000    -1.710000000    -1.971000000
C    -3.252000000    -1.825000000    -3.127000000
H    -2.967000000    -2.819000000    -3.460000000
H    -5.319000000    -2.789000000    -0.694000000
C    -2.408000000    -4.468000000    -0.699000000
H    -2.274000000    -4.789000000    -1.729000000
C    -1.447000000    -4.872000000     0.313000000
C    -0.349000000    -5.742000000    -0.155000000
H    -0.747000000    -6.347000000    -0.973000000
H    -0.072000000    -6.411000000     0.663000000
C     0.744000000    -4.874000000    -0.665000000
C     0.808000000    -4.472000000    -1.994000000
H     0.005000000    -4.753000000    -2.669000000
C     1.816000000    -4.411000000     0.185000000
C     2.761000000    -3.540000000    -0.232000000
H     3.400000000    -3.050000000     0.498000000
C     2.860000000    -3.194000000    -1.598000000
O     3.827000000    -2.312000000    -1.866000000
C     3.366000000    -0.992000000    -2.367000000
C     4.179000000     0.135000000    -1.645000000
C     4.547000000     1.293000000    -2.249000000
H     4.279000000     1.536000000    -3.274000000
C     4.356000000    -0.057000000    -0.289000000
H     3.980000000    -0.943000000     0.214000000
O     3.366000000    -0.929000000    -3.819000000
H     2.325000000    -0.812000000    -2.057000000
C     1.889000000    -3.698000000    -2.499000000
C     1.977000000    -3.485000000    -3.981000000
H     1.317000000    -4.225000000    -4.439000000
H     3.007000000    -3.635000000    -4.311000000
C     1.402000000    -2.123000000    -4.424000000
C     0.066000000    -2.038000000    -4.750000000
H    -0.476000000    -2.975000000    -4.854000000
C     2.124000000    -0.905000000    -4.405000000
C     1.504000000     0.294000000    -4.668000000
H     2.118000000     1.169000000    -4.469000000
C     0.097000000     0.377000000    -4.736000000
O    -0.477000000     1.628000000    -4.835000000
C    -1.232000000     2.114000000    -3.753000000
C    -1.055000000     3.605000000    -3.473000000
C     0.201000000     4.208000000    -3.394000000
H     1.162000000     3.701000000    -3.433000000
C    -2.161000000     4.358000000    -3.127000000
H    -3.136000000     3.882000000    -3.064000000
O    -2.655000000     1.775000000    -3.939000000
H    -0.853000000     1.594000000    -2.860000000
C    -0.602000000    -0.816000000    -4.922000000
C    -2.111000000    -0.765000000    -5.157000000
H    -2.561000000    -1.606000000    -5.688000000
H    -2.372000000     0.121000000    -5.739000000
C    -2.826000000    -0.649000000    -3.812000000
C    -3.073000000     0.622000000    -3.333000000
C    -3.886000000     0.715000000    -2.125000000
H    -4.144000000     1.719000000    -1.799000000
C    -4.204000000    -0.462000000    -1.419000000
O    -4.691000000    -0.336000000    -0.141000000
C    -3.868000000    -0.671000000     0.974000000
H    -2.826000000    -0.567000000     0.637000000
C    -3.854000000     0.417000000     1.980000000
C    -3.675000000     0.142000000     3.351000000
H    -3.616000000    -0.906000000     3.634000000
C    -3.789000000     1.778000000     1.556000000
H    -3.883000000     1.994000000     0.495000000
C    -3.789000000     2.838000000     2.483000000
O    -3.692000000     4.149000000     2.042000000
C    -3.749000000     2.531000000     3.862000000
H    -3.766000000     3.342000000     4.585000000
C    -3.706000000     1.161000000     4.308000000
O    -3.634000000     0.782000000     5.653000000
C    -3.117000000    -0.399000000     6.200000000
C    -1.720000000    -0.605000000     6.111000000
H    -0.975000000     0.093000000     5.737000000
C    -3.977000000    -1.321000000     6.860000000
H    -5.052000000    -1.163000000     6.870000000
C    -3.358000000    -2.410000000     7.465000000
H    -3.990000000    -3.127000000     7.981000000
C    -2.000000000    -2.644000000     7.381000000
H    -1.688000000    -3.646000000     7.665000000
C    -1.168000000    -1.718000000     6.794000000
O     0.140000000    -1.872000000     6.861000000
C     0.928000000    -2.283000000     5.842000000
C     2.270000000    -2.310000000     6.141000000
H     2.671000000    -1.983000000     7.097000000
C     3.210000000    -2.755000000     5.114000000
O     4.535000000    -2.566000000     5.320000000
C     5.237000000    -1.994000000     4.320000000
C     4.666000000    -0.981000000     3.469000000
H     3.642000000    -0.623000000     3.529000000
C     6.569000000    -2.319000000     4.255000000
H     7.012000000    -3.075000000     4.899000000
C     7.337000000    -1.700000000     3.309000000
H     8.368000000    -1.999000000     3.141000000
C     6.775000000    -0.637000000     2.576000000
H     7.407000000    -0.128000000     1.852000000
C     5.495000000    -0.264000000     2.661000000
O     4.976000000     0.758000000     1.922000000
C     4.889000000     0.922000000     0.506000000
C     5.195000000     2.087000000    -0.069000000
H     5.599000000     2.912000000     0.512000000
C     5.074000000     2.335000000    -1.460000000
O     5.543000000     3.520000000    -2.005000000
C     4.787000000     4.366000000    -2.886000000
C     3.595000000     4.963000000    -2.439000000
H     3.212000000     4.824000000    -1.431000000
C     5.228000000     4.678000000    -4.177000000
H     6.228000000     4.297000000    -4.368000000
C     4.470000000     5.392000000    -5.109000000
H     4.846000000     5.638000000    -6.099000000
C     3.252000000     5.920000000    -4.605000000
H     2.659000000     6.493000000    -5.313000000
C     2.759000000     5.705000000    -3.286000000
O     1.568000000     6.138000000    -2.796000000
C     0.302000000     5.554000000    -2.984000000
C    -0.835000000     6.251000000    -2.520000000
H    -0.827000000     7.234000000    -2.056000000
C    -2.071000000     5.633000000    -2.652000000
O    -3.175000000     6.280000000    -2.165000000
C    -3.959000000     5.707000000    -1.211000000
C    -5.259000000     5.669000000    -1.510000000
H    -5.553000000     6.219000000    -2.400000000
C    -6.153000000     5.134000000    -0.600000000
H    -7.221000000     5.253000000    -0.761000000
C    -5.635000000     4.672000000     0.665000000
H    -6.262000000     4.322000000     1.482000000
C    -4.257000000     4.607000000     0.885000000
C    -3.439000000     5.145000000    -0.068000000
H    -2.367000000     5.018000000     0.059000000
C     1.028000000     2.143000000     0.020000000
H     1.647000000     2.937000000    -0.389000000
C     0.592000000     1.053000000    -0.733000000
H     0.780000000     0.956000000    -1.800000000
C    -0.057000000    -0.027000000    -0.137000000
H    -0.531000000    -0.817000000    -0.772000000
C    -0.431000000    -0.018000000     1.185000000
H    -1.063000000    -0.803000000     1.590000000
C     0.075000000     1.021000000     2.007000000
H     0.090000000     0.877000000     3.084000000
C     0.817000000     2.043000000     1.409000000
C     1.256000000     3.202000000     2.281000000
O     1.117000000     3.119000000     3.508000000
O     1.683000000     4.237000000     1.817000000
O     4.343000000     9.251000000     1.761000000
H     4.605000000     9.942000000     2.370000000
H     4.483000000     8.438000000     2.247000000
O     5.603000000     7.443000000     5.486000000
H     5.469000000     7.056000000     4.621000000
H     4.901000000     8.088000000     5.572000000
O     2.061000000     7.661000000     0.383000000
H     2.228000000     6.767000000     0.683000000
H     2.811000000     8.164000000     0.702000000
O     1.189000000     5.832000000     4.119000000
H     1.448000000     5.110000000     3.546000000
H     1.413000000     5.531000000     5.000000000
O    -0.669000000     8.516000000     0.422000000
H    -0.791000000     7.845000000     1.093000000
H     0.231000000     8.393000000     0.122000000
O     2.940000000     3.654000000     8.707000000
H     3.882000000     3.818000000     8.768000000
H     2.668000000     4.114000000     7.913000000
O     3.177000000     4.765000000     5.975000000
H     3.550000000     4.485000000     5.139000000
H     3.416000000     5.689000000     6.047000000
O    -0.897000000     2.671000000     7.087000000
H    -1.172000000     3.435000000     7.594000000
H    -1.118000000     1.923000000     7.642000000
O     4.332000000     3.972000000     3.588000000
H     3.564000000     3.580000000     3.173000000
H     5.057000000     3.397000000     3.342000000
O     1.600000000     8.444000000     3.275000000
H     1.483000000     7.510000000     3.446000000
H     0.938000000     8.651000000     2.616000000
O    -0.560000000     5.946000000     1.758000000
H    -1.085000000     5.620000000     2.488000000
H     0.178000000     5.340000000     1.704000000
O    -0.438000000     8.501000000     5.119000000
H    -1.011000000     7.745000000     5.246000000
H     0.223000000     8.199000000     4.496000000
O     4.832000000     6.714000000     2.714000000
H     5.607000000     6.358000000     2.280000000
H     4.497000000     5.988000000     3.240000000
O     3.142000000     0.712000000     7.467000000
H     2.755000000     0.855000000     6.604000000
H     3.160000000     1.580000000     7.869000000
O    -1.172000000     3.834000000     4.470000000
H    -1.207000000     3.364000000     5.302000000
H    -0.368000000     3.523000000     4.053000000
O     7.741000000     3.409000000     1.648000000
H     7.768000000     2.944000000     2.484000000
H     8.228000000     2.846000000     1.045000000
O     2.839000000     8.946000000    -2.109000000
H     2.450000000     8.264000000    -1.562000000
H     2.830000000     9.729000000    -1.559000000
O     1.641000000     1.519000000     5.429000000
H     0.790000000     1.650000000     5.847000000
H     1.728000000     2.256000000     4.825000000
O    -2.360000000     6.442000000     4.859000000
H    -2.136000000     5.521000000     4.722000000
H    -3.191000000     6.557000000     4.398000000
