215
-1451.38737
C     3.371000000    -1.497000000     2.833000000
H     3.835000000    -1.806000000     1.900000000
C     2.226000000    -2.137000000     3.131000000
C     1.803000000    -2.024000000     4.496000000
H     0.961000000    -2.612000000     4.852000000
C     1.551000000    -3.111000000     2.109000000
O     2.500000000    -3.854000000     1.339000000
H     0.884000000    -2.470000000     1.514000000
O     0.694000000    -4.081000000     2.745000000
C    -0.565000000    -4.103000000     2.182000000
C    -1.483000000    -3.235000000     2.733000000
H    -1.209000000    -2.593000000     3.566000000
C    -2.743000000    -3.148000000     2.225000000
O    -3.482000000    -2.071000000     2.790000000
C    -3.068000000    -3.770000000     0.976000000
C    -4.361000000    -3.535000000     0.162000000
H    -4.696000000    -4.374000000    -0.453000000
C    -4.254000000    -2.230000000    -0.663000000
C    -3.979000000    -2.394000000    -2.043000000
H    -3.950000000    -3.382000000    -2.495000000
H    -5.138000000    -3.428000000     0.922000000
C    -2.096000000    -4.546000000     0.386000000
H    -2.312000000    -4.901000000    -0.618000000
C    -0.867000000    -4.847000000     1.023000000
C     0.243000000    -5.585000000     0.357000000
H    -0.125000000    -6.367000000    -0.310000000
H     0.852000000    -6.134000000     1.079000000
C     1.148000000    -4.715000000    -0.498000000
C     0.812000000    -4.559000000    -1.892000000
H    -0.157000000    -4.897000000    -2.249000000
C     2.287000000    -4.105000000    -0.023000000
C     3.106000000    -3.370000000    -0.910000000
H     3.846000000    -2.687000000    -0.501000000
C     2.748000000    -3.234000000    -2.215000000
O     3.570000000    -2.267000000    -2.883000000
C     2.953000000    -0.929000000    -3.073000000
C     3.987000000     0.181000000    -2.741000000
C     3.776000000     1.510000000    -3.184000000
H     2.903000000     1.617000000    -3.822000000
C     5.095000000    -0.167000000    -1.966000000
H     5.308000000    -1.188000000    -1.660000000
O     2.273000000    -0.853000000    -4.340000000
H     2.247000000    -0.771000000    -2.245000000
C     1.611000000    -3.814000000    -2.732000000
C     1.194000000    -3.591000000    -4.126000000
H     0.615000000    -4.480000000    -4.384000000
H     2.037000000    -3.561000000    -4.819000000
C     0.338000000    -2.316000000    -4.258000000
C    -1.055000000    -2.386000000    -4.218000000
H    -1.468000000    -3.384000000    -4.094000000
C     0.950000000    -1.032000000    -4.458000000
C     0.160000000     0.096000000    -4.666000000
H     0.527000000     1.120000000    -4.643000000
C    -1.206000000    -0.025000000    -4.599000000
O    -1.914000000     1.166000000    -4.526000000
C    -2.442000000     1.495000000    -3.295000000
C    -2.336000000     2.981000000    -3.153000000
C    -1.132000000     3.613000000    -3.490000000
H    -0.245000000     3.051000000    -3.773000000
C    -3.377000000     3.750000000    -2.603000000
H    -4.270000000     3.189000000    -2.340000000
O    -3.758000000     1.021000000    -3.206000000
H    -1.815000000     1.125000000    -2.470000000
C    -1.797000000    -1.297000000    -4.411000000
C    -3.260000000    -1.471000000    -4.356000000
H    -3.477000000    -2.486000000    -4.697000000
H    -3.775000000    -0.733000000    -4.974000000
C    -3.770000000    -1.298000000    -2.893000000
C    -4.003000000    -0.035000000    -2.361000000
C    -4.336000000     0.181000000    -1.008000000
H    -4.602000000     1.133000000    -0.555000000
C    -4.389000000    -0.940000000    -0.185000000
O    -4.667000000    -0.704000000     1.119000000
C    -3.555000000    -0.834000000     2.022000000
H    -2.655000000    -0.756000000     1.396000000
C    -3.544000000     0.375000000     2.994000000
C    -3.220000000     0.198000000     4.368000000
H    -3.077000000    -0.752000000     4.876000000
C    -3.675000000     1.681000000     2.560000000
H    -3.713000000     1.948000000     1.508000000
C    -3.482000000     2.777000000     3.368000000
O    -3.448000000     4.006000000     2.771000000
C    -3.083000000     2.581000000     4.652000000
H    -2.734000000     3.443000000     5.214000000
C    -2.835000000     1.319000000     5.130000000
O    -2.234000000     1.211000000     6.324000000
C    -1.530000000     0.154000000     6.815000000
C    -0.215000000     0.057000000     6.380000000
H     0.140000000     0.630000000     5.527000000
C    -1.951000000    -0.602000000     7.899000000
H    -2.965000000    -0.438000000     8.256000000
C    -1.088000000    -1.500000000     8.542000000
H    -1.408000000    -2.032000000     9.434000000
C     0.208000000    -1.652000000     8.073000000
H     0.919000000    -2.340000000     8.524000000
C     0.664000000    -0.837000000     7.009000000
O     2.039000000    -1.009000000     6.668000000
C     2.509000000    -1.194000000     5.399000000
C     3.689000000    -0.566000000     5.076000000
H     4.317000000     0.087000000     5.676000000
C     4.056000000    -0.659000000     3.741000000
O     5.090000000     0.157000000     3.344000000
C     5.951000000    -0.348000000     2.412000000
C     6.186000000     0.447000000     1.258000000
H     5.649000000     1.373000000     1.068000000
C     6.527000000    -1.605000000     2.482000000
H     6.385000000    -2.231000000     3.359000000
C     7.473000000    -2.033000000     1.606000000
H     7.975000000    -2.990000000     1.724000000
C     7.774000000    -1.260000000     0.486000000
H     8.529000000    -1.552000000    -0.240000000
C     7.041000000    -0.056000000     0.257000000
O     7.123000000     0.572000000    -0.986000000
C     5.972000000     0.838000000    -1.687000000
C     5.833000000     2.154000000    -2.159000000
H     6.644000000     2.859000000    -1.995000000
C     4.763000000     2.496000000    -2.969000000
O     4.588000000     3.802000000    -3.409000000
C     3.459000000     4.128000000    -4.086000000
C     2.382000000     4.503000000    -3.348000000
H     2.451000000     4.505000000    -2.263000000
C     3.425000000     3.975000000    -5.448000000
H     4.344000000     3.593000000    -5.884000000
C     2.345000000     4.330000000    -6.155000000
H     2.294000000     4.251000000    -7.238000000
C     1.283000000     4.872000000    -5.421000000
H     0.432000000     5.202000000    -6.012000000
C     1.284000000     5.032000000    -4.080000000
O     0.223000000     5.650000000    -3.449000000
C    -0.963000000     4.981000000    -3.222000000
C    -1.961000000     5.707000000    -2.638000000
H    -1.814000000     6.723000000    -2.280000000
C    -3.190000000     5.128000000    -2.360000000
O    -4.152000000     5.799000000    -1.587000000
C    -4.691000000     5.262000000    -0.418000000
C    -6.034000000     5.254000000    -0.198000000
H    -6.755000000     5.540000000    -0.959000000
C    -6.501000000     4.802000000     1.051000000
H    -7.574000000     4.736000000     1.211000000
C    -5.679000000     4.339000000     2.003000000
H    -6.019000000     3.943000000     2.956000000
C    -4.331000000     4.342000000     1.768000000
C    -3.886000000     4.842000000     0.577000000
H    -2.826000000     5.010000000     0.407000000
C     2.193000000     2.721000000     0.192000000
H     2.865000000     3.279000000    -0.455000000
C     1.300000000     1.830000000    -0.400000000
H     1.410000000     1.737000000    -1.477000000
C     0.379000000     1.099000000     0.403000000
H    -0.310000000     0.403000000    -0.128000000
C     0.420000000     1.280000000     1.784000000
H    -0.325000000     0.775000000     2.394000000
C     1.327000000     2.149000000     2.386000000
H     1.206000000     2.244000000     3.462000000
C     2.198000000     2.892000000     1.588000000
C     3.221000000     3.800000000     2.199000000
O     3.121000000     4.069000000     3.378000000
O     4.168000000     4.197000000     1.548000000
O     5.036000000     6.775000000     1.466000000
H     4.779000000     5.863000000     1.602000000
H     5.161000000     7.122000000     2.349000000
O     3.957000000     7.052000000    -1.586000000
H     4.857000000     6.927000000    -1.286000000
H     4.008000000     7.786000000    -2.199000000
O     5.216000000     3.877000000     6.375000000
H     5.453000000     3.517000000     5.520000000
H     5.839000000     4.590000000     6.515000000
O     7.928000000     3.081000000     5.240000000
H     8.155000000     3.847000000     5.766000000
H     7.465000000     3.438000000     4.482000000
O     2.449000000     5.880000000     0.221000000
H     3.163000000     6.177000000    -0.343000000
H     2.878000000     5.628000000     1.038000000
O     2.001000000     2.056000000     7.792000000
H     2.225000000     2.514000000     6.982000000
H     1.438000000     2.669000000     8.266000000
O     5.804000000     4.902000000    -0.523000000
H     5.089000000     4.514000000    -0.019000000
H     6.308000000     5.400000000     0.120000000
O     5.370000000     9.406000000     0.503000000
H     6.234000000     9.625000000     0.852000000
H     5.139000000     8.583000000     0.934000000
O     8.374000000     3.240000000     1.646000000
H     8.904000000     3.773000000     1.053000000
H     8.647000000     2.340000000     1.468000000
O    -0.154000000     4.858000000     0.285000000
H     0.199000000     4.088000000    -0.161000000
H     0.465000000     5.558000000     0.078000000
O    -0.692000000     5.704000000     6.449000000
H    -1.511000000     6.194000000     6.525000000
H    -0.822000000     5.138000000     5.689000000
O     2.007000000     6.162000000     4.342000000
H     2.462000000     5.589000000     3.725000000
H     2.281000000     5.849000000     5.204000000
O     6.144000000     3.463000000     3.465000000
H     5.296000000     3.640000000     3.057000000
H     6.760000000     3.429000000     2.733000000
O     6.731000000     0.687000000     5.779000000
H     7.136000000     1.544000000     5.913000000
H     6.115000000     0.823000000     5.059000000
O     5.888000000     7.205000000     4.196000000
H     5.371000000     7.882000000     4.634000000
H     6.097000000     6.578000000     4.888000000
O     1.656000000     8.418000000     0.522000000
H     2.410000000     8.842000000     0.113000000
H     1.876000000     7.487000000     0.523000000
O     0.482000000     8.273000000     2.965000000
H     0.828000000     8.221000000     2.074000000
H     0.918000000     7.562000000     3.433000000
O     2.533000000     3.814000000     5.981000000
H     2.654000000     3.788000000     5.032000000
H     3.406000000     3.994000000     6.330000000
O    -0.710000000     4.829000000     3.759000000
H    -0.774000000     4.478000000     2.870000000
H     0.203000000     5.104000000     3.842000000
