215
-1452.45689
C     3.915000000    -2.485000000     2.763000000
H     4.442000000    -2.764000000     1.854000000
C     2.563000000    -2.762000000     2.971000000
C     2.000000000    -2.531000000     4.239000000
H     0.966000000    -2.724000000     4.511000000
C     1.738000000    -3.282000000     1.807000000
O     2.485000000    -4.121000000     0.906000000
H     1.389000000    -2.440000000     1.190000000
O     0.648000000    -4.019000000     2.359000000
C    -0.617000000    -4.100000000     1.798000000
C    -1.512000000    -3.349000000     2.499000000
H    -1.211000000    -2.831000000     3.406000000
C    -2.794000000    -3.148000000     2.011000000
O    -3.592000000    -2.255000000     2.684000000
C    -3.097000000    -3.715000000     0.762000000
C    -4.457000000    -3.441000000     0.166000000
H    -4.766000000    -4.230000000    -0.523000000
C    -4.377000000    -2.148000000    -0.633000000
C    -3.806000000    -2.230000000    -1.888000000
H    -3.352000000    -3.154000000    -2.239000000
H    -5.190000000    -3.306000000     0.964000000
C    -2.173000000    -4.511000000     0.097000000
H    -2.421000000    -4.778000000    -0.927000000
C    -0.879000000    -4.707000000     0.579000000
C     0.227000000    -5.541000000    -0.104000000
H    -0.310000000    -6.211000000    -0.778000000
H     0.793000000    -6.159000000     0.596000000
C     1.022000000    -4.601000000    -0.965000000
C     0.759000000    -4.372000000    -2.302000000
H    -0.177000000    -4.747000000    -2.708000000
C     2.212000000    -4.105000000    -0.436000000
C     3.116000000    -3.328000000    -1.235000000
H     3.925000000    -2.922000000    -0.633000000
C     2.820000000    -3.186000000    -2.568000000
O     3.556000000    -2.159000000    -3.166000000
C     2.884000000    -0.841000000    -3.226000000
C     3.838000000     0.344000000    -3.000000000
C     3.834000000     1.514000000    -3.753000000
H     3.218000000     1.617000000    -4.643000000
C     4.550000000     0.303000000    -1.775000000
H     4.408000000    -0.581000000    -1.159000000
O     2.265000000    -0.615000000    -4.504000000
H     2.111000000    -0.816000000    -2.444000000
C     1.627000000    -3.652000000    -3.065000000
C     1.202000000    -3.284000000    -4.497000000
H     0.647000000    -4.139000000    -4.888000000
H     2.114000000    -3.198000000    -5.091000000
C     0.351000000    -2.006000000    -4.575000000
C    -1.031000000    -2.173000000    -4.425000000
H    -1.399000000    -3.196000000    -4.420000000
C     0.919000000    -0.733000000    -4.666000000
C     0.065000000     0.402000000    -4.588000000
H     0.596000000     1.350000000    -4.631000000
C    -1.312000000     0.218000000    -4.405000000
O    -2.037000000     1.374000000    -4.224000000
C    -2.560000000     1.715000000    -2.927000000
C    -2.425000000     3.203000000    -2.621000000
C    -1.127000000     3.744000000    -2.703000000
H    -0.240000000     3.228000000    -3.061000000
C    -3.469000000     3.994000000    -2.172000000
H    -4.482000000     3.607000000    -2.101000000
O    -3.893000000     1.319000000    -2.794000000
H    -2.067000000     1.066000000    -2.188000000
C    -1.875000000    -1.052000000    -4.257000000
C    -3.397000000    -1.194000000    -4.127000000
H    -3.666000000    -2.184000000    -4.501000000
H    -3.809000000    -0.411000000    -4.767000000
C    -3.815000000    -1.088000000    -2.658000000
C    -4.144000000     0.131000000    -2.145000000
C    -4.545000000     0.263000000    -0.794000000
H    -4.814000000     1.219000000    -0.351000000
C    -4.783000000    -0.910000000    -0.069000000
O    -4.874000000    -0.814000000     1.287000000
C    -3.636000000    -0.918000000     2.005000000
H    -2.735000000    -0.868000000     1.377000000
C    -3.472000000     0.218000000     3.114000000
C    -2.729000000    -0.012000000     4.263000000
H    -2.266000000    -0.981000000     4.433000000
C    -3.848000000     1.549000000     2.768000000
H    -4.302000000     1.797000000     1.813000000
C    -3.509000000     2.550000000     3.605000000
O    -3.761000000     3.846000000     3.230000000
C    -2.968000000     2.306000000     4.847000000
H    -2.738000000     3.105000000     5.547000000
C    -2.534000000     0.994000000     5.210000000
O    -1.858000000     0.771000000     6.391000000
C    -1.073000000    -0.336000000     6.736000000
C     0.242000000    -0.457000000     6.327000000
H     0.710000000     0.239000000     5.635000000
C    -1.618000000    -1.167000000     7.718000000
H    -2.601000000    -0.915000000     8.106000000
C    -0.867000000    -2.221000000     8.295000000
H    -1.349000000    -2.851000000     9.039000000
C     0.478000000    -2.303000000     7.956000000
H     1.035000000    -3.130000000     8.388000000
C     1.052000000    -1.484000000     6.869000000
O     2.359000000    -1.755000000     6.561000000
C     2.808000000    -1.946000000     5.260000000
C     4.107000000    -1.542000000     4.979000000
H     4.798000000    -1.196000000     5.744000000
C     4.664000000    -1.765000000     3.738000000
O     5.962000000    -1.606000000     3.480000000
C     6.532000000    -1.056000000     2.329000000
C     6.018000000    -0.055000000     1.566000000
H     5.049000000     0.339000000     1.863000000
C     7.660000000    -1.795000000     1.863000000
H     8.138000000    -2.511000000     2.527000000
C     8.242000000    -1.421000000     0.672000000
H     9.022000000    -2.079000000     0.297000000
C     7.762000000    -0.357000000    -0.077000000
H     8.229000000    -0.034000000    -1.004000000
C     6.635000000     0.286000000     0.381000000
O     6.137000000     1.425000000    -0.266000000
C     5.398000000     1.429000000    -1.456000000
C     5.244000000     2.615000000    -2.109000000
H     5.705000000     3.480000000    -1.639000000
C     4.554000000     2.628000000    -3.328000000
O     4.473000000     3.814000000    -4.107000000
C     3.247000000     4.532000000    -4.283000000
C     2.344000000     4.651000000    -3.253000000
H     2.455000000     4.097000000    -2.324000000
C     2.971000000     5.006000000    -5.603000000
H     3.576000000     4.820000000    -6.487000000
C     1.763000000     5.725000000    -5.766000000
H     1.465000000     6.104000000    -6.740000000
C     0.897000000     5.958000000    -4.644000000
H     0.066000000     6.656000000    -4.699000000
C     1.199000000     5.399000000    -3.415000000
O     0.333000000     5.569000000    -2.335000000
C    -0.907000000     5.041000000    -2.200000000
C    -1.998000000     5.759000000    -1.773000000
H    -1.824000000     6.708000000    -1.272000000
C    -3.270000000     5.258000000    -1.720000000
O    -4.273000000     5.976000000    -1.114000000
C    -4.804000000     5.300000000    -0.010000000
C    -6.177000000     4.922000000    -0.035000000
H    -6.686000000     5.247000000    -0.939000000
C    -6.697000000     4.099000000     0.996000000
H    -7.678000000     3.637000000     0.926000000
C    -5.964000000     3.792000000     2.143000000
H    -6.319000000     3.277000000     3.032000000
C    -4.601000000     4.243000000     2.196000000
C    -4.020000000     4.956000000     1.076000000
H    -2.971000000     5.235000000     1.128000000
C     1.979000000     1.308000000     0.506000000
H     2.738000000     1.983000000     0.119000000
C     1.239000000     0.604000000    -0.420000000
H     1.202000000     0.694000000    -1.502000000
C     0.259000000    -0.270000000     0.064000000
H    -0.439000000    -0.728000000    -0.638000000
C     0.127000000    -0.414000000     1.449000000
H    -0.659000000    -1.067000000     1.819000000
C     0.982000000     0.226000000     2.350000000
H     0.903000000    -0.116000000     3.378000000
C     1.886000000     1.170000000     1.902000000
C     2.812000000     1.916000000     2.781000000
O     2.448000000     1.965000000     3.930000000
O     3.469000000     2.855000000     2.345000000
O     5.742000000     6.763000000     2.877000000
H     5.382000000     7.234000000     2.126000000
H     5.058000000     6.139000000     3.120000000
O     3.872000000     4.914000000     3.804000000
H     3.611000000     4.128000000     3.323000000
H     3.120000000     5.115000000     4.361000000
O     7.392000000     0.883000000     5.176000000
H     6.828000000     0.763000000     4.411000000
H     6.995000000     1.611000000     5.654000000
O     2.252000000     4.519000000     0.903000000
H     2.609000000     3.846000000     1.482000000
H     1.416000000     4.760000000     1.301000000
O     1.198000000     7.289000000     0.128000000
H     1.131000000     6.478000000    -0.376000000
H     0.614000000     7.155000000     0.875000000
O    -0.753000000     5.671000000     4.805000000
H    -0.433000000     4.775000000     4.696000000
H    -1.608000000     5.570000000     5.224000000
O     8.005000000     5.290000000     0.264000000
H     7.745000000     5.761000000    -0.527000000
H     7.268000000     5.404000000     0.864000000
O     5.832000000     3.180000000     5.603000000
H     5.007000000     3.649000000     5.730000000
H     6.045000000     3.315000000     4.680000000
O     4.734000000     5.345000000    -0.186000000
H     4.269000000     6.137000000     0.082000000
H     4.141000000     4.630000000     0.043000000
O    -1.387000000     2.099000000     1.163000000
H    -0.797000000     1.376000000     0.950000000
H    -2.264000000     1.733000000     1.055000000
O     4.323000000     6.462000000     6.187000000
H     4.519000000     5.887000000     5.448000000
H     3.422000000     6.243000000     6.427000000
O     6.213000000     2.804000000     2.811000000
H     6.688000000     2.841000000     1.980000000
H     5.307000000     3.008000000     2.578000000
O     5.244000000     1.394000000     7.550000000
H     4.977000000     1.924000000     8.302000000
H     4.992000000     1.915000000     6.788000000
O    -0.200000000     6.423000000     2.191000000
H    -1.156000000     6.457000000     2.227000000
H     0.043000000     5.793000000     2.869000000
O     9.107000000     2.634000000     2.884000000
H     9.621000000     2.376000000     3.649000000
H     8.260000000     2.900000000     3.243000000
O     6.795000000    -0.837000000     7.374000000
H     7.148000000    -0.770000000     6.487000000
H     6.343000000    -0.006000000     7.516000000
O     1.746000000     5.663000000     6.065000000
H     1.281000000     5.226000000     6.778000000
H     1.054000000     6.042000000     5.523000000
O     3.066000000     2.977000000     6.360000000
H     2.271000000     2.835000000     6.875000000
H     2.865000000     2.604000000     5.502000000
O     0.239000000     3.768000000     3.011000000
H    -0.379000000     3.211000000     2.537000000
H     0.774000000     3.157000000     3.516000000
