215
-1440.34556
C    -3.247000000    -3.797000000     0.071000000
H    -3.154000000    -3.764000000    -1.012000000
C    -3.851000000    -2.715000000     0.781000000
C    -4.004000000    -2.840000000     2.143000000
H    -4.379000000    -2.024000000     2.756000000
C    -4.004000000    -1.395000000     0.054000000
O    -4.490000000    -1.617000000    -1.356000000
H    -2.996000000    -0.955000000     0.026000000
O    -4.927000000    -0.463000000     0.739000000
C    -4.575000000     0.858000000     0.805000000
C    -3.821000000     1.297000000     1.863000000
H    -3.676000000     0.649000000     2.723000000
C    -3.323000000     2.587000000     1.997000000
O    -2.492000000     2.845000000     3.030000000
C    -3.420000000     3.445000000     0.925000000
C    -2.763000000     4.822000000     0.916000000
H    -3.382000000     5.414000000     0.239000000
C    -1.254000000     4.881000000     0.588000000
C    -0.823000000     5.116000000    -0.753000000
H    -1.545000000     5.230000000    -1.558000000
H    -2.842000000     5.317000000     1.886000000
C    -4.041000000     2.967000000    -0.255000000
H    -4.365000000     3.661000000    -1.026000000
C    -4.546000000     1.683000000    -0.363000000
C    -5.222000000     1.236000000    -1.630000000
H    -5.663000000     2.063000000    -2.189000000
H    -6.055000000     0.545000000    -1.479000000
C    -4.226000000     0.480000000    -2.525000000
C    -3.488000000     1.189000000    -3.421000000
H    -3.635000000     2.252000000    -3.595000000
C    -4.007000000    -0.916000000    -2.402000000
C    -3.012000000    -1.508000000    -3.237000000
H    -2.778000000    -2.557000000    -3.076000000
C    -2.309000000    -0.783000000    -4.182000000
O    -1.283000000    -1.426000000    -4.784000000
C     0.048000000    -1.230000000    -4.290000000
C     0.642000000    -2.633000000    -4.235000000
C     2.014000000    -2.719000000    -3.960000000
H     2.614000000    -1.813000000    -3.993000000
C    -0.109000000    -3.804000000    -4.257000000
H    -1.186000000    -3.836000000    -4.396000000
O     0.801000000    -0.173000000    -5.038000000
H    -0.122000000    -0.896000000    -3.256000000
C    -2.461000000     0.580000000    -4.252000000
C    -1.606000000     1.443000000    -5.085000000
H    -2.052000000     2.358000000    -5.480000000
H    -1.329000000     0.900000000    -5.991000000
C    -0.316000000     1.833000000    -4.336000000
C    -0.252000000     3.021000000    -3.770000000
H    -1.133000000     3.624000000    -3.565000000
C     0.837000000     1.031000000    -4.395000000
C     1.974000000     1.381000000    -3.715000000
H     2.888000000     0.793000000    -3.729000000
C     2.020000000     2.618000000    -3.066000000
O     3.088000000     2.937000000    -2.299000000
C     2.961000000     2.977000000    -0.857000000
C     4.045000000     2.185000000    -0.148000000
C     4.264000000     0.870000000    -0.479000000
H     3.790000000     0.463000000    -1.369000000
C     4.668000000     2.694000000     0.993000000
H     4.364000000     3.644000000     1.426000000
O     2.781000000     4.324000000    -0.434000000
H     2.038000000     2.449000000    -0.578000000
C     0.901000000     3.515000000    -3.113000000
C     0.923000000     4.897000000    -2.525000000
H     0.182000000     5.390000000    -3.158000000
H     1.848000000     5.377000000    -2.851000000
C     0.512000000     4.923000000    -1.077000000
C     1.505000000     4.638000000    -0.091000000
C     1.113000000     4.486000000     1.222000000
H     1.876000000     4.138000000     1.915000000
C    -0.247000000     4.627000000     1.547000000
O    -0.607000000     4.244000000     2.846000000
C    -1.052000000     2.854000000     2.969000000
H    -0.847000000     2.342000000     2.017000000
C    -0.252000000     2.119000000     4.076000000
C    -0.698000000     0.807000000     4.370000000
H    -1.603000000     0.427000000     3.902000000
C     0.936000000     2.670000000     4.589000000
H     1.270000000     3.662000000     4.296000000
C     1.633000000     1.927000000     5.584000000
O     2.830000000     2.407000000     6.088000000
C     1.168000000     0.665000000     5.902000000
H     1.736000000     0.023000000     6.570000000
C     0.098000000     0.061000000     5.230000000
O    -0.318000000    -1.216000000     5.626000000
C    -1.619000000    -1.544000000     5.730000000
C    -2.154000000    -2.291000000     4.723000000
H    -1.453000000    -2.647000000     3.973000000
C    -2.414000000    -1.268000000     6.878000000
H    -2.073000000    -0.655000000     7.709000000
C    -3.705000000    -1.871000000     7.021000000
H    -4.246000000    -1.606000000     7.926000000
C    -4.163000000    -2.700000000     6.032000000
H    -5.082000000    -3.258000000     6.195000000
C    -3.357000000    -3.010000000     4.929000000
O    -3.744000000    -4.081000000     4.113000000
C    -3.588000000    -3.999000000     2.786000000
C    -3.073000000    -5.090000000     2.093000000
H    -2.794000000    -5.992000000     2.632000000
C    -2.937000000    -4.954000000     0.732000000
O    -2.497000000    -6.003000000    -0.013000000
C    -2.545000000    -6.125000000    -1.429000000
C    -1.311000000    -6.166000000    -2.060000000
H    -0.433000000    -5.988000000    -1.445000000
C    -3.711000000    -6.507000000    -2.077000000
H    -4.640000000    -6.671000000    -1.537000000
C    -3.663000000    -6.820000000    -3.440000000
H    -4.552000000    -7.083000000    -4.008000000
C    -2.477000000    -6.695000000    -4.109000000
H    -2.369000000    -6.867000000    -5.177000000
C    -1.345000000    -6.327000000    -3.452000000
O    -0.192000000    -6.211000000    -4.119000000
C     0.531000000    -5.027000000    -4.008000000
C     1.921000000    -5.074000000    -3.861000000
H     2.386000000    -6.050000000    -3.753000000
C     2.704000000    -3.979000000    -3.787000000
O     4.055000000    -4.052000000    -3.735000000
C     4.814000000    -3.014000000    -3.288000000
C     4.715000000    -2.594000000    -1.940000000
H     4.068000000    -3.125000000    -1.246000000
C     5.532000000    -2.318000000    -4.206000000
H     5.569000000    -2.751000000    -5.202000000
C     6.241000000    -1.186000000    -3.792000000
H     6.800000000    -0.691000000    -4.581000000
C     6.228000000    -0.851000000    -2.428000000
H     6.765000000     0.021000000    -2.064000000
C     5.508000000    -1.581000000    -1.529000000
O     5.419000000    -1.236000000    -0.205000000
C     5.222000000     0.101000000     0.131000000
C     5.868000000     0.618000000     1.204000000
H     6.558000000    -0.047000000     1.718000000
C     5.559000000     1.877000000     1.626000000
O     6.304000000     2.390000000     2.809000000
C     5.571000000     3.004000000     3.794000000
C     5.904000000     4.345000000     4.032000000
H     6.821000000     4.707000000     3.573000000
C     5.057000000     5.059000000     4.893000000
H     5.254000000     6.086000000     5.191000000
C     4.080000000     4.376000000     5.602000000
H     3.571000000     4.890000000     6.413000000
C     3.748000000     3.056000000     5.339000000
C     4.508000000     2.348000000     4.399000000
H     4.313000000     1.286000000     4.275000000
C     2.241000000    -2.100000000     0.722000000
H     3.239000000    -2.198000000     1.143000000
C     1.634000000    -0.826000000     0.733000000
H     2.154000000     0.012000000     1.191000000
C     0.346000000    -0.648000000     0.182000000
H    -0.011000000     0.332000000     0.226000000
C    -0.341000000    -1.713000000    -0.425000000
H    -1.328000000    -1.637000000    -0.875000000
C     0.297000000    -2.965000000    -0.483000000
H    -0.096000000    -3.829000000    -1.013000000
C     1.571000000    -3.180000000     0.118000000
C     2.231000000    -4.503000000     0.090000000
O     1.662000000    -5.428000000    -0.440000000
O     3.353000000    -4.675000000     0.486000000
O     2.119000000    -3.444000000     4.684000000
H     3.003000000    -3.165000000     4.445000000
H     1.619000000    -2.630000000     4.745000000
O     0.194000000    -5.325000000     3.870000000
H     0.464000000    -5.075000000     2.987000000
H     1.013000000    -5.390000000     4.362000000
O     6.501000000    -6.284000000     1.061000000
H     6.054000000    -5.529000000     0.679000000
H     6.935000000    -6.706000000     0.319000000
O     2.110000000    -8.718000000     1.140000000
H     2.644000000    -7.981000000     1.436000000
H     1.829000000    -8.472000000     0.259000000
O     3.818000000    -6.755000000     2.061000000
H     4.765000000    -6.774000000     1.922000000
H     3.501000000    -6.087000000     1.452000000
O     0.077000000    -6.457000000     1.169000000
H    -0.789000000    -6.456000000     0.761000000
H     0.673000000    -6.192000000     0.468000000
O    -1.397000000    -8.547000000     2.457000000
H    -0.809000000    -7.810000000     2.290000000
H    -1.547000000    -8.932000000     1.594000000
O     5.453000000    -3.275000000     1.815000000
H     4.830000000    -3.662000000     1.200000000
H     6.093000000    -2.830000000     1.259000000
O     0.483000000   -10.479000000    -1.734000000
H     0.722000000    -9.729000000    -1.190000000
H     0.010000000   -10.098000000    -2.473000000
O     5.496000000    -1.963000000     4.373000000
H     5.805000000    -2.427000000     3.596000000
H     6.028000000    -1.168000000     4.405000000
O     5.578000000    -9.168000000     1.685000000
H     5.928000000    -9.466000000     0.846000000
H     4.746000000    -8.749000000     1.463000000
O     4.579000000    -5.838000000    -1.458000000
H     4.956000000    -5.019000000    -1.780000000
H     4.010000000    -5.572000000    -0.736000000
O    -1.536000000    -7.217000000     4.853000000
H    -1.624000000    -7.688000000     4.024000000
H    -0.840000000    -6.580000000     4.694000000
O     2.066000000    -7.939000000    -1.500000000
H     2.826000000    -8.045000000    -2.071000000
H     2.087000000    -7.017000000    -1.242000000
O     2.974000000    -7.264000000     4.707000000
H     3.503000000    -6.480000000     4.562000000
H     2.739000000    -7.562000000     3.828000000
O     1.955000000    -9.167000000    -4.386000000
H     2.036000000    -8.972000000    -5.319000000
H     1.588000000    -8.369000000    -4.005000000
O     0.904000000   -10.415000000     3.246000000
H     0.089000000   -10.132000000     3.659000000
H     1.199000000    -9.650000000     2.751000000
O     4.494000000    -5.079000000     4.721000000
H     4.404000000    -4.689000000     3.852000000
H     5.397000000    -4.890000000     4.976000000
O     4.537000000    -8.227000000    -2.733000000
H     4.692000000    -7.466000000    -2.175000000
H     4.385000000    -7.859000000    -3.604000000
