215
-1420.13977
C     2.147000000    -4.791000000     0.542000000
H     2.228000000    -4.561000000    -0.517000000
C     0.921000000    -4.807000000     1.187000000
C     0.943000000    -4.900000000     2.594000000
H    -0.032000000    -4.826000000     3.069000000
C    -0.262000000    -4.336000000     0.376000000
O    -0.214000000    -4.844000000    -0.974000000
H    -0.340000000    -3.244000000     0.267000000
O    -1.510000000    -4.706000000     1.002000000
C    -2.550000000    -3.855000000     0.966000000
C    -2.648000000    -2.993000000     2.068000000
H    -2.071000000    -3.099000000     2.983000000
C    -3.613000000    -1.965000000     2.071000000
O    -3.693000000    -1.080000000     3.146000000
C    -4.398000000    -1.741000000     0.954000000
C    -5.420000000    -0.697000000     0.879000000
H    -6.212000000    -1.119000000     0.257000000
C    -4.838000000     0.719000000     0.466000000
C    -4.782000000     1.109000000    -0.896000000
H    -5.176000000     0.460000000    -1.674000000
H    -5.991000000    -0.682000000     1.810000000
C    -4.274000000    -2.523000000    -0.185000000
H    -4.811000000    -2.309000000    -1.106000000
C    -3.392000000    -3.565000000    -0.148000000
C    -3.067000000    -4.317000000    -1.458000000
H    -3.931000000    -4.390000000    -2.122000000
H    -2.728000000    -5.331000000    -1.238000000
C    -2.031000000    -3.759000000    -2.293000000
C    -2.378000000    -2.907000000    -3.327000000
H    -3.415000000    -2.623000000    -3.487000000
C    -0.718000000    -4.149000000    -2.036000000
C     0.285000000    -3.566000000    -2.848000000
H     1.307000000    -3.911000000    -2.714000000
C    -0.015000000    -2.523000000    -3.714000000
O     1.016000000    -1.925000000    -4.293000000
C     1.323000000    -0.559000000    -4.002000000
C     2.806000000    -0.348000000    -3.916000000
C     3.272000000     0.934000000    -4.020000000
H     2.653000000     1.760000000    -4.359000000
C     3.741000000    -1.352000000    -3.502000000
H     3.358000000    -2.311000000    -3.165000000
O     0.666000000     0.272000000    -4.949000000
H     0.976000000    -0.297000000    -2.992000000
C    -1.374000000    -2.249000000    -3.999000000
C    -1.739000000    -1.302000000    -5.118000000
H    -2.688000000    -1.503000000    -5.621000000
H    -1.109000000    -1.441000000    -5.999000000
C    -1.699000000     0.107000000    -4.544000000
C    -2.874000000     0.722000000    -4.097000000
H    -3.820000000     0.189000000    -4.135000000
C    -0.553000000     0.867000000    -4.552000000
C    -0.463000000     2.114000000    -4.015000000
H     0.487000000     2.642000000    -4.035000000
C    -1.581000000     2.625000000    -3.404000000
O    -1.438000000     3.791000000    -2.682000000
C    -1.469000000     3.754000000    -1.211000000
C    -0.302000000     4.538000000    -0.608000000
C     0.869000000     4.837000000    -1.381000000
H     0.881000000     4.535000000    -2.425000000
C    -0.325000000     5.015000000     0.694000000
H    -1.146000000     4.802000000     1.375000000
O    -2.773000000     4.192000000    -0.622000000
H    -1.261000000     2.742000000    -0.833000000
C    -2.801000000     1.915000000    -3.443000000
C    -4.054000000     2.558000000    -2.770000000
H    -4.847000000     2.163000000    -3.409000000
H    -4.105000000     3.644000000    -2.873000000
C    -4.200000000     2.280000000    -1.332000000
C    -3.654000000     3.171000000    -0.355000000
C    -3.706000000     2.765000000     0.977000000
H    -3.096000000     3.322000000     1.683000000
C    -4.193000000     1.569000000     1.354000000
O    -4.011000000     1.167000000     2.643000000
C    -2.995000000     0.180000000     3.003000000
H    -2.303000000     0.017000000     2.164000000
C    -2.093000000     0.603000000     4.155000000
C    -1.097000000    -0.207000000     4.625000000
H    -0.930000000    -1.163000000     4.136000000
C    -2.160000000     1.867000000     4.700000000
H    -3.035000000     2.472000000     4.473000000
C    -1.193000000     2.290000000     5.598000000
O    -1.158000000     3.647000000     6.054000000
C    -0.196000000     1.409000000     6.099000000
H     0.564000000     1.812000000     6.763000000
C    -0.279000000     0.106000000     5.656000000
O     0.597000000    -0.826000000     6.207000000
C     0.529000000    -2.170000000     6.270000000
C     1.315000000    -2.965000000     5.426000000
H     2.057000000    -2.550000000     4.748000000
C    -0.420000000    -2.715000000     7.106000000
H    -1.041000000    -2.038000000     7.686000000
C    -0.542000000    -4.086000000     7.198000000
H    -1.189000000    -4.685000000     7.834000000
C     0.266000000    -4.904000000     6.343000000
H     0.151000000    -5.974000000     6.493000000
C     1.170000000    -4.359000000     5.468000000
O     1.889000000    -5.289000000     4.680000000
C     2.039000000    -5.216000000     3.294000000
C     3.238000000    -5.424000000     2.647000000
H     4.218000000    -5.494000000     3.112000000
C     3.288000000    -5.134000000     1.294000000
O     4.564000000    -5.112000000     0.691000000
C     4.909000000    -4.801000000    -0.634000000
C     5.302000000    -3.572000000    -1.108000000
H     5.386000000    -2.737000000    -0.417000000
C     4.663000000    -5.796000000    -1.533000000
H     4.203000000    -6.671000000    -1.081000000
C     5.011000000    -5.676000000    -2.923000000
H     5.026000000    -6.523000000    -3.603000000
C     5.485000000    -4.475000000    -3.317000000
H     5.800000000    -4.208000000    -4.323000000
C     5.661000000    -3.409000000    -2.409000000
O     6.004000000    -2.148000000    -2.932000000
C     5.123000000    -1.114000000    -3.256000000
C     5.558000000     0.151000000    -3.475000000
H     6.598000000     0.445000000    -3.367000000
C     4.644000000     1.174000000    -3.844000000
O     5.157000000     2.462000000    -4.010000000
C     4.361000000     3.622000000    -4.055000000
C     4.220000000     4.340000000    -2.866000000
H     4.757000000     3.937000000    -2.011000000
C     3.638000000     4.050000000    -5.188000000
H     3.728000000     3.457000000    -6.095000000
C     2.701000000     5.121000000    -5.063000000
H     2.148000000     5.430000000    -5.946000000
C     2.517000000     5.843000000    -3.824000000
H     1.797000000     6.651000000    -3.721000000
C     3.320000000     5.388000000    -2.756000000
O     3.101000000     5.875000000    -1.466000000
C     1.967000000     5.491000000    -0.796000000
C     1.959000000     5.913000000     0.490000000
H     2.892000000     6.272000000     0.917000000
C     0.795000000     5.701000000     1.234000000
O     0.812000000     6.247000000     2.564000000
C    -0.238000000     6.020000000     3.393000000
C    -1.274000000     6.928000000     3.422000000
H    -1.178000000     7.779000000     2.752000000
C    -2.389000000     6.609000000     4.249000000
H    -3.283000000     7.216000000     4.137000000
C    -2.306000000     5.588000000     5.174000000
H    -3.080000000     5.385000000     5.909000000
C    -1.231000000     4.731000000     5.235000000
C    -0.222000000     5.000000000     4.311000000
H     0.623000000     4.317000000     4.317000000
C     1.283000000     0.934000000     2.365000000
H     1.316000000     1.663000000     3.171000000
C     0.151000000     0.811000000     1.594000000
H    -0.726000000     1.388000000     1.877000000
C     0.155000000    -0.031000000     0.459000000
H    -0.777000000    -0.174000000    -0.070000000
C     1.375000000    -0.653000000     0.065000000
H     1.491000000    -1.333000000    -0.775000000
C     2.499000000    -0.423000000     0.869000000
H     3.335000000    -1.034000000     0.537000000
C     2.455000000     0.254000000     2.082000000
C     3.781000000     0.562000000     2.804000000
O     4.772000000     0.325000000     2.234000000
O     3.866000000     0.855000000     3.999000000
O     2.938000000     2.858000000     5.257000000
H     3.136000000     2.023000000     4.834000000
H     3.329000000     2.784000000     6.128000000
O     9.635000000    -0.001000000    -0.936000000
H     9.476000000     0.920000000    -0.732000000
H     9.345000000    -0.473000000    -0.155000000
O     1.815000000    -0.381000000     8.758000000
H     1.398000000    -0.563000000     7.916000000
H     1.291000000    -0.867000000     9.395000000
O     5.991000000     2.315000000     0.944000000
H     5.314000000     2.984000000     0.843000000
H     5.524000000     1.552000000     1.285000000
O     8.809000000     2.690000000    -0.332000000
H     8.034000000     2.357000000     0.120000000
H     8.774000000     3.638000000    -0.201000000
O     8.461000000    -2.409000000     4.983000000
H     7.765000000    -2.112000000     4.397000000
H     8.609000000    -1.669000000     5.573000000
O     5.583000000    -2.743000000     7.376000000
H     4.710000000    -2.886000000     7.741000000
H     5.486000000    -1.971000000     6.819000000
O     6.398000000    -1.645000000     3.342000000
H     5.848000000    -0.906000000     3.082000000
H     5.899000000    -2.084000000     4.031000000
O     9.251000000     2.640000000     4.148000000
H     9.576000000     1.839000000     4.560000000
H     8.330000000     2.458000000     3.965000000
O     6.107000000     2.570000000     4.006000000
H     6.065000000     2.749000000     3.066000000
H     5.316000000     2.063000000     4.188000000
O     6.272000000     5.036000000     5.149000000
H     5.492000000     5.503000000     4.850000000
H     6.212000000     4.177000000     4.730000000
O     2.164000000     3.797000000     8.073000000
H     1.489000000     4.284000000     7.601000000
H     2.228000000     4.237000000     8.921000000
O     3.669000000     1.583000000     7.886000000
H     3.053000000     2.304000000     8.013000000
H     3.255000000     0.836000000     8.317000000
O     3.745000000     5.117000000     4.065000000
H     3.443000000     4.724000000     3.246000000
H     3.303000000     4.615000000     4.749000000
O     8.811000000    -1.207000000     1.570000000
H     7.965000000    -1.208000000     2.017000000
H     9.235000000    -2.015000000     1.858000000
O     4.311000000    -1.107000000     5.778000000
H     3.701000000    -0.650000000     6.358000000
H     4.170000000    -0.707000000     4.920000000
O     5.158000000     5.067000000     0.995000000
H     5.433000000     5.915000000     1.344000000
H     5.097000000     5.205000000     0.050000000
O     6.511000000     2.111000000     7.370000000
H     6.651000000     2.950000000     6.933000000
H     5.563000000     2.062000000     7.495000000
O     8.148000000    -0.409000000     6.826000000
H     7.425000000     0.218000000     6.831000000
H     8.193000000    -0.730000000     7.727000000
