215
-1461.11211
C     2.767000000    -4.131000000     1.327000000
H     2.827000000    -4.396000000     0.274000000
C     1.498000000    -3.791000000     1.899000000
C     1.471000000    -3.306000000     3.201000000
H     0.482000000    -2.976000000     3.508000000
C     0.242000000    -3.880000000     1.046000000
O     0.361000000    -4.898000000     0.016000000
H     0.058000000    -2.891000000     0.601000000
O    -0.857000000    -4.289000000     1.888000000
C    -2.034000000    -3.583000000     1.650000000
C    -2.310000000    -2.591000000     2.570000000
H    -1.610000000    -2.523000000     3.399000000
C    -3.447000000    -1.820000000     2.439000000
O    -3.693000000    -0.783000000     3.348000000
C    -4.215000000    -1.864000000     1.332000000
C    -5.292000000    -0.822000000     1.132000000
H    -6.071000000    -1.301000000     0.534000000
C    -4.790000000     0.404000000     0.388000000
C    -4.861000000     0.408000000    -1.008000000
H    -5.363000000    -0.414000000    -1.511000000
H    -5.723000000    -0.410000000     2.047000000
C    -3.916000000    -2.861000000     0.367000000
H    -4.470000000    -2.902000000    -0.567000000
C    -2.844000000    -3.777000000     0.540000000
C    -2.577000000    -4.883000000    -0.481000000
H    -3.416000000    -5.245000000    -1.079000000
H    -2.232000000    -5.761000000     0.070000000
C    -1.506000000    -4.438000000    -1.475000000
C    -1.904000000    -3.724000000    -2.560000000
H    -2.977000000    -3.590000000    -2.662000000
C    -0.138000000    -4.551000000    -1.231000000
C     0.750000000    -4.087000000    -2.178000000
H     1.825000000    -4.121000000    -2.019000000
C     0.313000000    -3.361000000    -3.246000000
O     1.271000000    -2.764000000    -4.024000000
C     1.414000000    -1.360000000    -3.978000000
C     2.871000000    -0.870000000    -3.868000000
C     3.267000000     0.468000000    -3.800000000
H     2.569000000     1.279000000    -3.991000000
C     3.956000000    -1.785000000    -3.747000000
H     3.781000000    -2.858000000    -3.776000000
O     0.618000000    -0.684000000    -5.050000000
H     0.953000000    -1.051000000    -3.028000000
C    -1.050000000    -3.201000000    -3.449000000
C    -1.500000000    -2.564000000    -4.704000000
H    -2.404000000    -3.109000000    -4.984000000
H    -0.740000000    -2.639000000    -5.485000000
C    -1.681000000    -1.135000000    -4.493000000
C    -2.979000000    -0.568000000    -4.149000000
H    -3.827000000    -1.246000000    -4.110000000
C    -0.644000000    -0.232000000    -4.667000000
C    -0.808000000     1.151000000    -4.461000000
H     0.080000000     1.762000000    -4.603000000
C    -1.986000000     1.702000000    -3.965000000
O    -1.931000000     3.024000000    -3.562000000
C    -1.866000000     3.147000000    -2.164000000
C    -0.867000000     4.282000000    -1.730000000
C     0.325000000     4.574000000    -2.436000000
H     0.592000000     4.101000000    -3.378000000
C    -1.026000000     4.936000000    -0.457000000
H    -1.876000000     4.746000000     0.193000000
O    -3.153000000     3.548000000    -1.715000000
H    -1.667000000     2.168000000    -1.704000000
C    -3.130000000     0.812000000    -3.808000000
C    -4.457000000     1.329000000    -3.265000000
H    -5.351000000     0.765000000    -3.537000000
H    -4.501000000     2.308000000    -3.747000000
C    -4.338000000     1.462000000    -1.729000000
C    -3.780000000     2.540000000    -1.038000000
C    -3.657000000     2.518000000     0.339000000
H    -3.261000000     3.351000000     0.914000000
C    -4.080000000     1.413000000     1.076000000
O    -3.919000000     1.418000000     2.421000000
C    -3.030000000     0.495000000     3.033000000
H    -2.168000000     0.259000000     2.391000000
C    -2.370000000     1.153000000     4.285000000
C    -1.868000000     0.398000000     5.315000000
H    -2.050000000    -0.670000000     5.399000000
C    -2.174000000     2.459000000     4.277000000
H    -2.553000000     3.048000000     3.446000000
C    -1.407000000     3.105000000     5.238000000
O    -1.178000000     4.503000000     5.242000000
C    -0.776000000     2.300000000     6.195000000
H    -0.116000000     2.721000000     6.950000000
C    -1.029000000     1.000000000     6.291000000
O    -0.409000000     0.270000000     7.291000000
C     0.193000000    -0.929000000     7.110000000
C     1.071000000    -1.204000000     6.084000000
H     1.344000000    -0.376000000     5.434000000
C    -0.431000000    -1.929000000     7.823000000
H    -1.171000000    -1.626000000     8.559000000
C    -0.051000000    -3.283000000     7.660000000
H    -0.475000000    -4.070000000     8.279000000
C     0.933000000    -3.523000000     6.714000000
H     1.357000000    -4.513000000     6.568000000
C     1.505000000    -2.512000000     5.976000000
O     2.585000000    -2.787000000     5.236000000
C     2.649000000    -3.269000000     3.920000000
C     3.912000000    -3.520000000     3.365000000
H     4.775000000    -3.313000000     3.991000000
C     3.931000000    -3.973000000     2.048000000
O     5.191000000    -4.143000000     1.390000000
C     5.335000000    -4.245000000     0.029000000
C     5.468000000    -3.166000000    -0.822000000
H     5.426000000    -2.164000000    -0.403000000
C     5.432000000    -5.584000000    -0.501000000
H     5.170000000    -6.445000000     0.108000000
C     5.774000000    -5.791000000    -1.828000000
H     6.046000000    -6.759000000    -2.240000000
C     6.068000000    -4.653000000    -2.649000000
H     6.489000000    -4.924000000    -3.614000000
C     5.875000000    -3.335000000    -2.192000000
O     6.215000000    -2.277000000    -3.031000000
C     5.254000000    -1.415000000    -3.503000000
C     5.542000000    -0.053000000    -3.406000000
H     6.594000000     0.192000000    -3.285000000
C     4.588000000     0.930000000    -3.579000000
O     4.984000000     2.252000000    -3.502000000
C     4.219000000     3.260000000    -4.068000000
C     3.802000000     4.247000000    -3.224000000
H     4.174000000     4.289000000    -2.203000000
C     3.794000000     3.211000000    -5.440000000
H     4.137000000     2.308000000    -5.939000000
C     2.954000000     4.237000000    -5.950000000
H     2.655000000     4.316000000    -6.992000000
C     2.514000000     5.165000000    -5.027000000
H     2.000000000     6.056000000    -5.378000000
C     2.915000000     5.123000000    -3.700000000
O     2.333000000     5.961000000    -2.737000000
C     1.195000000     5.640000000    -2.025000000
C     0.904000000     6.288000000    -0.860000000
H     1.578000000     7.094000000    -0.581000000
C    -0.142000000     5.903000000    -0.059000000
O    -0.362000000     6.685000000     1.082000000
C    -1.251000000     6.298000000     2.129000000
C    -2.569000000     6.785000000     2.097000000
H    -2.867000000     7.408000000     1.258000000
C    -3.352000000     6.651000000     3.229000000
H    -4.364000000     7.039000000     3.310000000
C    -2.821000000     5.945000000     4.360000000
H    -3.425000000     5.888000000     5.262000000
C    -1.545000000     5.374000000     4.294000000
C    -0.741000000     5.549000000     3.177000000
H     0.221000000     5.065000000     3.029000000
C     0.810000000     1.135000000     2.275000000
H     0.592000000     1.885000000     3.032000000
C    -0.100000000     0.814000000     1.225000000
H    -0.992000000     1.431000000     1.145000000
C     0.304000000    -0.159000000     0.271000000
H    -0.433000000    -0.373000000    -0.429000000
C     1.583000000    -0.660000000     0.218000000
H     1.880000000    -1.171000000    -0.694000000
C     2.505000000    -0.344000000     1.190000000
H     3.566000000    -0.531000000     1.045000000
C     2.103000000     0.543000000     2.216000000
C     3.105000000     1.076000000     3.199000000
O     4.243000000     0.696000000     3.202000000
O     2.698000000     1.827000000     4.146000000
O     5.252000000     5.653000000     3.949000000
H     5.185000000     4.818000000     4.413000000
H     4.889000000     5.475000000     3.082000000
O     3.233000000     1.663000000     6.698000000
H     2.748000000     1.937000000     5.920000000
H     3.878000000     1.036000000     6.370000000
O     6.143000000     4.772000000     1.016000000
H     7.045000000     4.747000000     0.695000000
H     5.781000000     3.918000000     0.780000000
O     5.036000000     2.260000000     0.967000000
H     4.191000000     2.249000000     0.518000000
H     4.887000000     1.762000000     1.771000000
O     7.374000000     0.732000000     0.866000000
H     6.541000000     1.204000000     0.867000000
H     7.716000000     0.849000000     1.752000000
O     8.731000000    -1.699000000     0.468000000
H     9.567000000    -1.377000000     0.807000000
H     8.143000000    -0.945000000     0.527000000
O     7.790000000     1.128000000     3.393000000
H     7.333000000     0.549000000     4.004000000
H     8.518000000     1.485000000     3.901000000
O     5.556000000     3.913000000     7.176000000
H     5.390000000     3.409000000     6.379000000
H     6.502000000     4.060000000     7.172000000
O     5.393000000     2.818000000     4.716000000
H     6.011000000     2.307000000     4.193000000
H     4.560000000     2.355000000     4.624000000
O     5.371000000     6.864000000     6.471000000
H     4.953000000     6.023000000     6.658000000
H     5.161000000     7.037000000     5.554000000
O     2.012000000     3.115000000     8.540000000
H     1.909000000     2.536000000     9.296000000
H     2.464000000     2.579000000     7.888000000
O     4.822000000    -0.702000000     6.935000000
H     4.041000000    -0.983000000     7.412000000
H     5.542000000    -0.843000000     7.549000000
O     2.505000000     4.408000000     3.607000000
H     2.687000000     3.489000000     3.802000000
H     2.352000000     4.809000000     4.463000000
O     5.192000000     2.350000000     9.437000000
H     5.092000000     1.544000000     8.930000000
H     5.157000000     3.049000000     8.784000000
O     3.422000000     5.784000000     1.482000000
H     4.133000000     5.188000000     1.245000000
H     2.990000000     5.359000000     2.223000000
O     7.201000000    -3.320000000     4.208000000
H     8.123000000    -3.100000000     4.076000000
H     6.768000000    -2.475000000     4.329000000
O     3.743000000     5.290000000     8.677000000
H     2.923000000     4.855000000     8.910000000
H     4.229000000     4.633000000     8.178000000
O     5.878000000    -0.975000000     4.535000000
H     5.464000000    -0.858000000     5.390000000
H     5.359000000    -0.432000000     3.942000000
O     2.645000000     2.764000000    -0.238000000
H     2.423000000     3.499000000    -0.810000000
H     1.945000000     2.747000000     0.414000000
