215
-1435.32894
C     2.776000000    -3.980000000     0.965000000
H     2.802000000    -3.730000000    -0.092000000
C     1.544000000    -4.346000000     1.488000000
C     1.476000000    -4.400000000     2.870000000
H     0.511000000    -4.503000000     3.359000000
C     0.355000000    -4.256000000     0.645000000
O     0.552000000    -4.945000000    -0.678000000
H     0.189000000    -3.187000000     0.449000000
O    -0.833000000    -4.777000000     1.336000000
C    -1.966000000    -4.031000000     1.226000000
C    -2.182000000    -3.108000000     2.222000000
H    -1.594000000    -3.137000000     3.135000000
C    -3.293000000    -2.291000000     2.102000000
O    -3.414000000    -1.436000000     3.148000000
C    -4.086000000    -2.357000000     0.990000000
C    -5.204000000    -1.301000000     0.751000000
H    -5.853000000    -1.813000000     0.037000000
C    -4.858000000     0.062000000     0.219000000
C    -4.841000000     0.287000000    -1.177000000
H    -5.160000000    -0.518000000    -1.833000000
H    -5.721000000    -1.140000000     1.698000000
C    -3.786000000    -3.236000000    -0.026000000
H    -4.424000000    -3.187000000    -0.905000000
C    -2.706000000    -4.077000000     0.022000000
C    -2.300000000    -4.883000000    -1.130000000
H    -3.214000000    -5.145000000    -1.667000000
H    -1.962000000    -5.852000000    -0.758000000
C    -1.228000000    -4.185000000    -2.055000000
C    -1.744000000    -3.392000000    -3.120000000
H    -2.813000000    -3.225000000    -3.225000000
C     0.118000000    -4.273000000    -1.836000000
C     0.991000000    -3.615000000    -2.678000000
H     2.064000000    -3.760000000    -2.584000000
C     0.482000000    -2.827000000    -3.734000000
O     1.370000000    -2.008000000    -4.532000000
C     1.541000000    -0.680000000    -4.015000000
C     2.976000000    -0.185000000    -3.830000000
C     3.387000000     1.098000000    -3.925000000
H     2.650000000     1.897000000    -3.939000000
C     3.997000000    -1.161000000    -3.464000000
H     3.732000000    -2.205000000    -3.609000000
O     0.825000000     0.163000000    -4.922000000
H     1.059000000    -0.749000000    -3.029000000
C    -0.884000000    -2.750000000    -4.012000000
C    -1.413000000    -1.867000000    -5.188000000
H    -2.383000000    -2.151000000    -5.601000000
H    -0.779000000    -1.912000000    -6.076000000
C    -1.562000000    -0.344000000    -4.786000000
C    -2.749000000     0.039000000    -4.191000000
H    -3.562000000    -0.648000000    -3.970000000
C    -0.472000000     0.496000000    -4.754000000
C    -0.556000000     1.771000000    -4.204000000
H     0.340000000     2.360000000    -4.027000000
C    -1.820000000     2.188000000    -3.685000000
O    -1.936000000     3.392000000    -3.031000000
C    -2.006000000     3.504000000    -1.583000000
C    -1.090000000     4.633000000    -1.007000000
C     0.002000000     4.987000000    -1.753000000
H     0.177000000     4.647000000    -2.770000000
C    -1.246000000     4.991000000     0.340000000
H    -2.002000000     4.565000000     0.995000000
O    -3.350000000     3.577000000    -1.072000000
H    -1.622000000     2.545000000    -1.205000000
C    -2.953000000     1.378000000    -3.734000000
C    -4.315000000     1.793000000    -3.199000000
H    -5.171000000     1.370000000    -3.729000000
H    -4.421000000     2.875000000    -3.297000000
C    -4.368000000     1.529000000    -1.657000000
C    -3.988000000     2.483000000    -0.686000000
C    -3.985000000     2.246000000     0.716000000
H    -3.656000000     3.084000000     1.325000000
C    -4.438000000     1.011000000     1.196000000
O    -4.116000000     0.758000000     2.539000000
C    -3.027000000    -0.103000000     2.912000000
H    -2.385000000    -0.125000000     2.019000000
C    -2.245000000     0.452000000     4.062000000
C    -1.338000000    -0.306000000     4.824000000
H    -1.172000000    -1.352000000     4.580000000
C    -2.427000000     1.863000000     4.322000000
H    -2.996000000     2.542000000     3.693000000
C    -1.839000000     2.363000000     5.444000000
O    -2.031000000     3.681000000     5.751000000
C    -0.929000000     1.635000000     6.147000000
H    -0.358000000     2.063000000     6.966000000
C    -0.654000000     0.298000000     5.930000000
O     0.343000000    -0.406000000     6.566000000
C     0.434000000    -1.783000000     6.535000000
C     1.295000000    -2.344000000     5.670000000
H     1.939000000    -1.753000000     5.024000000
C    -0.394000000    -2.537000000     7.356000000
H    -1.246000000    -2.066000000     7.840000000
C    -0.213000000    -3.948000000     7.395000000
H    -0.852000000    -4.673000000     7.895000000
C     0.792000000    -4.542000000     6.574000000
H     0.911000000    -5.621000000     6.630000000
C     1.523000000    -3.745000000     5.706000000
O     2.591000000    -4.326000000     5.042000000
C     2.619000000    -4.338000000     3.644000000
C     3.828000000    -4.101000000     3.070000000
H     4.692000000    -3.891000000     3.695000000
C     3.932000000    -4.001000000     1.708000000
O     5.220000000    -3.956000000     1.126000000
C     5.581000000    -3.932000000    -0.197000000
C     5.862000000    -2.795000000    -0.892000000
H     5.923000000    -1.815000000    -0.425000000
C     5.325000000    -5.151000000    -0.893000000
H     4.937000000    -6.078000000    -0.479000000
C     5.524000000    -5.190000000    -2.269000000
H     5.313000000    -6.101000000    -2.824000000
C     5.833000000    -4.093000000    -2.942000000
H     5.966000000    -4.110000000    -4.020000000
C     5.937000000    -2.899000000    -2.287000000
O     6.234000000    -1.775000000    -3.049000000
C     5.330000000    -0.783000000    -3.306000000
C     5.669000000     0.537000000    -3.524000000
H     6.720000000     0.800000000    -3.435000000
C     4.733000000     1.496000000    -3.839000000
O     5.083000000     2.823000000    -3.671000000
C     4.264000000     3.921000000    -3.765000000
C     3.525000000     4.433000000    -2.696000000
H     3.571000000     4.043000000    -1.683000000
C     4.030000000     4.428000000    -5.041000000
H     4.509000000     4.037000000    -5.935000000
C     3.104000000     5.433000000    -5.217000000
H     2.844000000     5.779000000    -6.214000000
C     2.412000000     5.985000000    -4.174000000
H     1.672000000     6.767000000    -4.322000000
C     2.651000000     5.435000000    -2.924000000
O     2.167000000     6.094000000    -1.812000000
C     0.957000000     5.821000000    -1.199000000
C     0.795000000     6.302000000     0.094000000
H     1.580000000     6.887000000     0.566000000
C    -0.279000000     5.850000000     0.877000000
O    -0.260000000     6.292000000     2.202000000
C    -1.272000000     6.026000000     3.086000000
C    -2.509000000     6.697000000     2.989000000
H    -2.630000000     7.470000000     2.234000000
C    -3.529000000     6.383000000     3.854000000
H    -4.427000000     6.995000000     3.872000000
C    -3.379000000     5.387000000     4.848000000
H    -4.235000000     5.132000000     5.468000000
C    -2.155000000     4.747000000     4.871000000
C    -1.084000000     5.107000000     4.049000000
H    -0.150000000     4.550000000     4.062000000
C     0.898000000     1.447000000     2.167000000
H     0.738000000     2.203000000     2.931000000
C    -0.057000000     1.134000000     1.239000000
H    -0.981000000     1.694000000     1.124000000
C     0.121000000     0.089000000     0.353000000
H    -0.682000000    -0.278000000    -0.442000000
C     1.358000000    -0.649000000     0.385000000
H     1.603000000    -1.428000000    -0.332000000
C     2.352000000    -0.315000000     1.312000000
H     3.306000000    -0.816000000     1.167000000
C     2.126000000     0.778000000     2.208000000
C     3.258000000     1.184000000     3.196000000
O     4.348000000     0.693000000     3.133000000
O     3.123000000     2.215000000     3.855000000
O     1.471000000     3.405000000     5.484000000
H     1.998000000     2.825000000     4.935000000
H     1.819000000     3.281000000     6.367000000
O     7.671000000    -0.673000000     1.174000000
H     6.856000000    -0.290000000     0.850000000
H     7.675000000    -0.471000000     2.109000000
O     2.522000000    -0.364000000     8.823000000
H     2.420000000    -0.693000000     9.716000000
H     3.015000000    -1.049000000     8.370000000
O     5.486000000     3.704000000     0.515000000
H     5.350000000     4.538000000     0.066000000
H     5.076000000     3.824000000     1.372000000
O     4.277000000    -2.410000000     7.870000000
H     3.483000000    -2.940000000     7.800000000
H     4.667000000    -2.447000000     6.997000000
O     8.222000000    -3.954000000     2.982000000
H     7.459000000    -3.484000000     3.316000000
H     8.466000000    -4.550000000     3.690000000
O     5.437000000     0.776000000     0.493000000
H     4.753000000     0.732000000     1.161000000
H     5.408000000     1.680000000     0.180000000
O     9.035000000    -0.829000000     4.283000000
H     9.716000000    -0.181000000     4.106000000
H     9.391000000    -1.361000000     4.996000000
O     6.519000000    -2.331000000     4.401000000
H     5.714000000    -1.812000000     4.370000000
H     7.222000000    -1.681000000     4.403000000
O     5.555000000     3.791000000     3.143000000
H     5.995000000     2.970000000     2.922000000
H     4.786000000     3.523000000     3.646000000
O     4.552000000     2.258000000     6.108000000
H     3.921000000     2.366000000     6.820000000
H     4.013000000     2.182000000     5.320000000
O     7.826000000     5.332000000     2.991000000
H     8.284000000     5.028000000     2.207000000
H     7.001000000     4.848000000     2.989000000
O     2.495000000     2.373000000     7.846000000
H     2.472000000     2.826000000     8.689000000
H     2.332000000     1.455000000     8.063000000
O     2.939000000     5.958000000     6.331000000
H     2.658000000     6.772000000     5.912000000
H     2.634000000     5.268000000     5.743000000
O     7.232000000     2.860000000     5.783000000
H     6.416000000     2.431000000     6.039000000
H     6.952000000     3.655000000     5.330000000
O     7.057000000     1.103000000     3.490000000
H     6.147000000     0.826000000     3.380000000
H     7.079000000     1.518000000     4.352000000
O     4.772000000    -0.670000000     5.439000000
H     5.262000000    -0.108000000     6.039000000
H     4.288000000    -0.061000000     4.881000000
O     4.864000000     6.740000000     2.302000000
H     4.674000000     6.828000000     1.368000000
H     4.879000000     5.795000000     2.455000000
O     9.477000000     1.761000000     2.474000000
H     8.568000000     1.475000000     2.563000000
H     9.801000000     1.813000000     3.373000000
