215
-1448.93191
C    -5.214000000     0.610000000    -1.602000000
H    -4.650000000     0.851000000    -2.499000000
C    -4.981000000     1.426000000    -0.449000000
C    -5.495000000     1.034000000     0.793000000
H    -5.278000000     1.570000000     1.714000000
C    -3.842000000     2.423000000    -0.534000000
O    -3.740000000     3.024000000    -1.861000000
H    -2.952000000     1.778000000    -0.496000000
O    -3.904000000     3.292000000     0.645000000
C    -2.718000000     3.590000000     1.234000000
C    -2.370000000     3.100000000     2.496000000
H    -3.046000000     2.440000000     3.035000000
C    -1.099000000     3.263000000     2.911000000
O    -0.905000000     2.506000000     4.026000000
C    -0.204000000     4.048000000     2.232000000
C     1.109000000     4.505000000     2.837000000
H     1.274000000     5.495000000     2.407000000
C     2.153000000     3.513000000     2.591000000
C     3.088000000     3.635000000     1.593000000
H     3.230000000     4.539000000     1.006000000
H     1.149000000     4.694000000     3.911000000
C    -0.586000000     4.688000000     1.062000000
H     0.166000000     5.275000000     0.541000000
C    -1.881000000     4.507000000     0.571000000
C    -2.173000000     5.139000000    -0.745000000
H    -1.884000000     6.192000000    -0.730000000
H    -3.249000000     5.267000000    -0.877000000
C    -1.644000000     4.239000000    -1.858000000
C    -0.398000000     4.448000000    -2.360000000
H     0.256000000     5.180000000    -1.891000000
C    -2.484000000     3.239000000    -2.346000000
C    -2.038000000     2.495000000    -3.384000000
H    -2.735000000     1.818000000    -3.870000000
C    -0.704000000     2.593000000    -3.832000000
O    -0.264000000     1.588000000    -4.726000000
C     0.620000000     0.569000000    -4.178000000
C     0.321000000    -0.836000000    -4.648000000
C     1.374000000    -1.717000000    -5.002000000
H     2.397000000    -1.358000000    -5.077000000
C    -0.989000000    -1.311000000    -4.670000000
H    -1.827000000    -0.654000000    -4.451000000
O     1.980000000     0.961000000    -4.392000000
H     0.339000000     0.637000000    -3.117000000
C     0.182000000     3.589000000    -3.324000000
C     1.616000000     3.850000000    -3.782000000
H     1.954000000     4.864000000    -3.557000000
H     1.665000000     3.692000000    -4.861000000
C     2.580000000     2.876000000    -3.070000000
C     3.249000000     3.261000000    -1.931000000
H     3.165000000     4.241000000    -1.468000000
C     2.691000000     1.553000000    -3.446000000
C     3.641000000     0.674000000    -2.861000000
H     3.853000000    -0.337000000    -3.201000000
C     4.223000000     1.012000000    -1.683000000
O     4.716000000    -0.049000000    -0.938000000
C     4.020000000    -0.451000000     0.309000000
C     4.022000000    -1.949000000     0.530000000
C     4.011000000    -2.756000000    -0.589000000
H     4.071000000    -2.263000000    -1.556000000
C     3.877000000    -2.563000000     1.770000000
H     3.951000000    -1.826000000     2.565000000
O     4.635000000     0.262000000     1.420000000
H     2.964000000    -0.158000000     0.209000000
C     4.058000000     2.336000000    -1.235000000
C     4.847000000     2.892000000    -0.048000000
H     5.054000000     3.962000000    -0.109000000
H     5.789000000     2.343000000     0.005000000
C     3.938000000     2.607000000     1.146000000
C     3.950000000     1.414000000     1.883000000
C     3.144000000     1.270000000     2.981000000
H     3.085000000     0.306000000     3.480000000
C     2.215000000     2.277000000     3.322000000
O     1.379000000     1.994000000     4.358000000
C     0.071000000     1.505000000     3.839000000
H     0.213000000     1.198000000     2.792000000
C    -0.328000000     0.197000000     4.614000000
C    -1.596000000    -0.271000000     4.372000000
H    -2.351000000     0.266000000     3.803000000
C     0.568000000    -0.517000000     5.437000000
H     1.612000000    -0.241000000     5.562000000
C     0.182000000    -1.749000000     5.947000000
O     1.175000000    -2.485000000     6.661000000
C    -1.127000000    -2.214000000     5.762000000
H    -1.426000000    -3.203000000     6.100000000
C    -2.047000000    -1.439000000     4.981000000
O    -3.374000000    -1.794000000     4.808000000
C    -4.407000000    -0.987000000     4.589000000
C    -5.183000000    -1.118000000     3.408000000
H    -4.924000000    -1.906000000     2.706000000
C    -4.764000000    -0.087000000     5.531000000
H    -4.276000000    -0.110000000     6.502000000
C    -5.906000000     0.751000000     5.330000000
H    -6.194000000     1.496000000     6.067000000
C    -6.708000000     0.581000000     4.218000000
H    -7.629000000     1.153000000     4.130000000
C    -6.278000000    -0.305000000     3.239000000
O    -6.971000000    -0.396000000     2.040000000
C    -6.383000000    -0.011000000     0.855000000
C    -6.741000000    -0.677000000    -0.302000000
H    -7.497000000    -1.458000000    -0.323000000
C    -6.140000000    -0.403000000    -1.548000000
O    -6.515000000    -1.129000000    -2.662000000
C    -5.710000000    -1.421000000    -3.706000000
C    -4.466000000    -2.117000000    -3.563000000
H    -4.174000000    -2.655000000    -2.664000000
C    -6.108000000    -0.958000000    -4.973000000
H    -7.051000000    -0.424000000    -5.067000000
C    -5.359000000    -1.252000000    -6.068000000
H    -5.662000000    -1.043000000    -7.090000000
C    -4.167000000    -1.989000000    -5.980000000
H    -3.641000000    -2.356000000    -6.857000000
C    -3.682000000    -2.334000000    -4.713000000
O    -2.553000000    -3.138000000    -4.783000000
C    -1.253000000    -2.659000000    -4.876000000
C    -0.187000000    -3.507000000    -5.205000000
H    -0.462000000    -4.522000000    -5.481000000
C     1.116000000    -3.063000000    -5.341000000
O     2.146000000    -3.897000000    -5.729000000
C     3.336000000    -3.930000000    -4.974000000
C     3.216000000    -4.420000000    -3.695000000
H     2.265000000    -4.808000000    -3.338000000
C     4.495000000    -3.305000000    -5.389000000
H     4.518000000    -2.982000000    -6.426000000
C     5.619000000    -3.289000000    -4.572000000
H     6.544000000    -2.904000000    -4.992000000
C     5.485000000    -3.918000000    -3.259000000
H     6.333000000    -3.949000000    -2.580000000
C     4.318000000    -4.398000000    -2.844000000
O     4.099000000    -4.943000000    -1.601000000
C     4.106000000    -4.174000000    -0.485000000
C     4.068000000    -4.740000000     0.770000000
H     4.141000000    -5.824000000     0.740000000
C     3.866000000    -3.959000000     1.919000000
O     3.783000000    -4.499000000     3.150000000
C     3.659000000    -3.901000000     4.396000000
C     4.789000000    -3.901000000     5.225000000
H     5.643000000    -4.483000000     4.886000000
C     4.643000000    -3.461000000     6.566000000
H     5.391000000    -3.670000000     7.326000000
C     3.436000000    -2.899000000     7.046000000
H     3.257000000    -2.435000000     8.013000000
C     2.374000000    -2.841000000     6.161000000
C     2.470000000    -3.399000000     4.901000000
H     1.567000000    -3.472000000     4.300000000
C    -0.083000000    -2.461000000    -1.345000000
H     0.442000000    -3.176000000    -1.974000000
C     0.358000000    -1.123000000    -1.239000000
H     1.335000000    -0.874000000    -1.648000000
C    -0.337000000    -0.151000000    -0.574000000
H    -0.051000000     0.886000000    -0.402000000
C    -1.465000000    -0.589000000     0.120000000
H    -1.934000000     0.081000000     0.837000000
C    -2.006000000    -1.865000000    -0.064000000
H    -2.990000000    -2.165000000     0.289000000
C    -1.257000000    -2.866000000    -0.726000000
C    -1.813000000    -4.240000000    -0.826000000
O    -2.725000000    -4.639000000    -0.100000000
O    -1.161000000    -4.967000000    -1.529000000
O     1.733000000    -7.999000000     0.731000000
H     1.643000000    -7.263000000     0.127000000
H     1.636000000    -8.775000000     0.180000000
O    -4.350000000    -6.634000000    -4.218000000
H    -3.462000000    -6.633000000    -3.860000000
H    -4.226000000    -6.565000000    -5.165000000
O    -2.271000000    -6.599000000     3.784000000
H    -1.631000000    -6.305000000     3.136000000
H    -2.749000000    -5.806000000     4.026000000
O    -7.102000000    -4.181000000    -0.778000000
H    -7.942000000    -3.744000000    -0.636000000
H    -6.964000000    -4.133000000    -1.724000000
O    -2.201000000    -6.713000000    -6.434000000
H    -1.464000000    -7.113000000    -6.897000000
H    -1.980000000    -6.805000000    -5.507000000
O    -6.117000000    -6.026000000    -2.462000000
H    -5.594000000    -6.217000000    -3.241000000
H    -5.511000000    -6.146000000    -1.731000000
O    -1.493000000    -6.733000000    -3.561000000
H    -1.358000000    -5.915000000    -3.082000000
H    -1.389000000    -7.417000000    -2.900000000
O    -3.863000000    -6.912000000    -0.922000000
H    -3.779000000    -7.360000000    -0.080000000
H    -3.210000000    -6.214000000    -0.888000000
O     0.478000000    -5.670000000     2.815000000
H     0.134000000    -4.792000000     2.652000000
H     0.417000000    -6.111000000     1.967000000
O     1.255000000    -7.920000000    -4.333000000
H     1.379000000    -7.730000000    -5.263000000
H     0.464000000    -7.438000000    -4.094000000
O    -0.339000000    -8.976000000     2.735000000
H    -0.454000000    -8.100000000     2.366000000
H    -0.861000000    -9.544000000     2.169000000
O     1.275000000    -5.993000000    -1.174000000
H     0.360000000    -5.760000000    -1.334000000
H     1.670000000    -5.190000000    -0.834000000
O    -4.990000000    -4.176000000     1.145000000
H    -4.172000000    -4.485000000     0.756000000
H    -5.521000000    -3.900000000     0.398000000
O    -4.640000000    -5.264000000     3.772000000
H    -5.303000000    -4.874000000     4.342000000
H    -4.730000000    -4.793000000     2.944000000
O    -3.767000000    -8.402000000     1.475000000
H    -3.340000000    -9.114000000     1.952000000
H    -4.664000000    -8.395000000     1.808000000
O    -2.921000000    -9.960000000    -2.645000000
H    -2.941000000    -9.057000000    -2.328000000
H    -3.182000000    -9.897000000    -3.564000000
O    -0.682000000    -8.406000000    -1.258000000
H    -0.935000000    -9.172000000    -0.743000000
H    -0.613000000    -7.698000000    -0.617000000
O    -1.404000000    -6.843000000     0.848000000
H    -2.048000000    -7.551000000     0.838000000
H    -1.892000000    -6.072000000     0.558000000
O    -0.784000000    -3.424000000     2.375000000
H    -1.118000000    -2.597000000     2.722000000
H    -1.432000000    -3.689000000     1.722000000
