215
-1467.47080
C     2.918000000    -2.268000000     2.947000000
H     3.311000000    -2.731000000     2.046000000
C     1.556000000    -2.358000000     3.272000000
C     1.155000000    -1.711000000     4.479000000
H     0.148000000    -1.898000000     4.845000000
C     0.578000000    -3.151000000     2.369000000
O     1.138000000    -4.353000000     1.736000000
H     0.199000000    -2.485000000     1.579000000
O    -0.535000000    -3.595000000     3.123000000
C    -1.738000000    -3.287000000     2.449000000
C    -2.371000000    -2.158000000     2.970000000
H    -1.998000000    -1.659000000     3.860000000
C    -3.501000000    -1.709000000     2.301000000
O    -4.003000000    -0.492000000     2.648000000
C    -3.935000000    -2.251000000     1.133000000
C    -5.148000000    -1.729000000     0.450000000
H    -5.720000000    -2.518000000    -0.044000000
C    -4.863000000    -0.713000000    -0.598000000
C    -4.550000000    -1.130000000    -1.872000000
H    -4.471000000    -2.185000000    -2.124000000
H    -5.858000000    -1.313000000     1.168000000
C    -3.250000000    -3.426000000     0.624000000
H    -3.622000000    -3.956000000    -0.249000000
C    -2.223000000    -3.956000000     1.348000000
C    -1.511000000    -5.218000000     0.949000000
H    -2.300000000    -5.833000000     0.512000000
H    -0.971000000    -5.629000000     1.805000000
C    -0.424000000    -4.969000000    -0.083000000
C    -0.675000000    -4.861000000    -1.403000000
H    -1.714000000    -4.959000000    -1.707000000
C     0.833000000    -4.603000000     0.383000000
C     1.862000000    -4.337000000    -0.512000000
H     2.896000000    -4.304000000    -0.178000000
C     1.642000000    -4.257000000    -1.868000000
O     2.576000000    -3.803000000    -2.728000000
C     2.522000000    -2.354000000    -2.896000000
C     3.914000000    -1.729000000    -2.811000000
C     4.215000000    -0.529000000    -3.483000000
H     3.451000000    -0.178000000    -4.172000000
C     4.846000000    -2.256000000    -1.937000000
H     4.539000000    -3.042000000    -1.252000000
O     1.873000000    -1.896000000    -4.172000000
H     1.855000000    -1.930000000    -2.130000000
C     0.332000000    -4.502000000    -2.300000000
C    -0.083000000    -4.124000000    -3.709000000
H    -0.853000000    -4.818000000    -4.051000000
H     0.800000000    -4.344000000    -4.313000000
C    -0.474000000    -2.683000000    -3.963000000
C    -1.818000000    -2.322000000    -4.033000000
H    -2.552000000    -3.084000000    -3.784000000
C     0.481000000    -1.684000000    -4.257000000
C     0.021000000    -0.412000000    -4.573000000
H     0.684000000     0.375000000    -4.925000000
C    -1.261000000    -0.028000000    -4.506000000
O    -1.540000000     1.390000000    -4.557000000
C    -2.066000000     2.065000000    -3.409000000
C    -1.317000000     3.352000000    -3.230000000
C     0.102000000     3.332000000    -3.377000000
H     0.610000000     2.409000000    -3.644000000
C    -1.931000000     4.480000000    -2.551000000
H    -2.980000000     4.459000000    -2.268000000
O    -3.473000000     2.067000000    -3.442000000
H    -1.705000000     1.471000000    -2.556000000
C    -2.210000000    -1.005000000    -4.212000000
C    -3.707000000    -0.750000000    -4.187000000
H    -4.306000000    -1.631000000    -4.429000000
H    -3.994000000    -0.044000000    -4.969000000
C    -4.138000000    -0.234000000    -2.899000000
C    -4.049000000     1.150000000    -2.580000000
C    -4.276000000     1.577000000    -1.247000000
H    -4.080000000     2.590000000    -0.906000000
C    -4.636000000     0.640000000    -0.275000000
O    -4.658000000     1.059000000     1.007000000
C    -3.575000000     0.716000000     1.910000000
H    -2.668000000     0.585000000     1.301000000
C    -3.197000000     1.791000000     2.839000000
C    -2.743000000     1.621000000     4.138000000
H    -2.595000000     0.623000000     4.544000000
C    -3.002000000     3.063000000     2.354000000
H    -3.279000000     3.263000000     1.322000000
C    -2.768000000     4.194000000     3.191000000
O    -2.666000000     5.455000000     2.710000000
C    -2.460000000     3.980000000     4.488000000
H    -2.366000000     4.843000000     5.142000000
C    -2.480000000     2.690000000     5.021000000
O    -2.104000000     2.483000000     6.334000000
C    -1.523000000     1.300000000     6.815000000
C    -0.222000000     0.996000000     6.421000000
H     0.331000000     1.618000000     5.723000000
C    -2.321000000     0.413000000     7.580000000
H    -3.374000000     0.597000000     7.777000000
C    -1.718000000    -0.765000000     8.021000000
H    -2.388000000    -1.360000000     8.636000000
C    -0.384000000    -1.080000000     7.734000000
H     0.039000000    -2.055000000     7.962000000
C     0.365000000    -0.178000000     6.895000000
O     1.646000000    -0.353000000     6.449000000
C     2.009000000    -0.925000000     5.215000000
C     3.330000000    -0.909000000     4.929000000
H     4.034000000    -0.379000000     5.566000000
C     3.796000000    -1.549000000     3.772000000
O     5.118000000    -1.374000000     3.471000000
C     5.798000000    -2.171000000     2.582000000
C     6.188000000    -1.647000000     1.354000000
H     5.904000000    -0.630000000     1.093000000
C     6.048000000    -3.528000000     2.931000000
H     5.758000000    -3.935000000     3.896000000
C     6.685000000    -4.283000000     2.010000000
H     6.748000000    -5.348000000     2.218000000
C     7.072000000    -3.785000000     0.801000000
H     7.651000000    -4.408000000     0.123000000
C     6.809000000    -2.470000000     0.404000000
O     7.106000000    -2.058000000    -0.835000000
C     6.139000000    -1.696000000    -1.807000000
C     6.453000000    -0.505000000    -2.491000000
H     7.410000000     0.000000000    -2.389000000
C     5.428000000     0.044000000    -3.289000000
O     5.717000000     1.235000000    -4.000000000
C     4.704000000     2.039000000    -4.505000000
C     4.060000000     2.924000000    -3.635000000
H     4.357000000     3.034000000    -2.595000000
C     4.367000000     1.986000000    -5.936000000
H     4.863000000     1.338000000    -6.654000000
C     3.380000000     2.883000000    -6.369000000
H     3.175000000     2.862000000    -7.436000000
C     2.699000000     3.732000000    -5.499000000
H     1.896000000     4.373000000    -5.853000000
C     2.962000000     3.692000000    -4.101000000
O     2.251000000     4.466000000    -3.239000000
C     0.884000000     4.490000000    -3.121000000
C     0.243000000     5.633000000    -2.655000000
H     0.705000000     6.604000000    -2.499000000
C    -1.151000000     5.648000000    -2.386000000
O    -1.645000000     6.805000000    -1.779000000
C    -2.549000000     6.694000000    -0.764000000
C    -3.840000000     7.232000000    -0.889000000
H    -4.172000000     7.759000000    -1.780000000
C    -4.756000000     7.049000000     0.202000000
H    -5.752000000     7.458000000     0.056000000
C    -4.395000000     6.413000000     1.372000000
H    -5.052000000     6.265000000     2.225000000
C    -3.119000000     5.890000000     1.478000000
C    -2.226000000     6.049000000     0.435000000
H    -1.266000000     5.540000000     0.458000000
C    -0.011000000     2.752000000     0.271000000
H    -0.644000000     3.565000000     0.616000000
C    -0.564000000     1.574000000    -0.262000000
H    -1.649000000     1.555000000    -0.329000000
C     0.202000000     0.451000000    -0.594000000
H    -0.280000000    -0.420000000    -0.982000000
C     1.541000000     0.596000000    -0.459000000
H     2.177000000    -0.278000000    -0.572000000
C     2.187000000     1.778000000    -0.034000000
H     3.270000000     1.810000000     0.052000000
C     1.386000000     2.883000000     0.350000000
C     1.911000000     4.242000000     0.801000000
O     3.092000000     4.352000000     0.996000000
O     1.171000000     5.208000000     0.792000000
O     1.956000000     2.694000000     3.977000000
H     1.988000000     3.121000000     3.121000000
H     2.409000000     1.861000000     3.846000000
O     7.870000000     4.695000000     1.967000000
H     8.063000000     5.090000000     2.817000000
H     7.588000000     5.429000000     1.421000000
O     3.914000000     8.847000000    -2.786000000
H     3.605000000     9.404000000    -2.072000000
H     4.188000000     8.037000000    -2.356000000
O     4.636000000     1.353000000     3.668000000
H     5.210000000     1.570000000     2.933000000
H     4.249000000     0.511000000     3.430000000
O     5.156000000     6.611000000    -1.044000000
H     5.402000000     5.783000000    -0.631000000
H     4.265000000     6.777000000    -0.736000000
O     6.150000000     6.151000000    -3.744000000
H     7.041000000     6.433000000    -3.951000000
H     6.108000000     6.174000000    -2.788000000
O     6.473000000     2.218000000     1.798000000
H     6.617000000     3.138000000     2.022000000
H     7.353000000     1.853000000     1.706000000
O     4.698000000     8.473000000     2.545000000
H     4.360000000     9.070000000     1.877000000
H     4.435000000     8.870000000     3.376000000
O     5.435000000     4.217000000     4.582000000
H     4.893000000     4.810000000     4.062000000
H     5.077000000     3.347000000     4.404000000
O     5.463000000     4.069000000    -0.142000000
H     5.813000000     3.332000000     0.360000000
H     4.581000000     4.199000000     0.206000000
O     0.319000000     7.223000000     2.148000000
H     0.339000000     6.807000000     3.010000000
H     0.593000000     6.533000000     1.543000000
O     3.967000000     5.674000000     2.977000000
H     3.728000000     5.186000000     2.190000000
H     4.241000000     6.532000000     2.653000000
O     2.195000000     5.465000000     4.966000000
H     2.128000000     4.527000000     4.786000000
H     2.819000000     5.790000000     4.317000000
O     2.679000000     7.154000000    -0.390000000
H     2.349000000     6.348000000     0.007000000
H     2.007000000     7.808000000    -0.200000000
O     7.515000000     7.906000000    -0.963000000
H     7.359000000     8.516000000    -1.684000000
H     6.642000000     7.615000000    -0.703000000
O     7.486000000     7.966000000     2.181000000
H     7.759000000     8.081000000     1.271000000
H     6.550000000     8.169000000     2.178000000
O     0.242000000     6.962000000     6.583000000
H     0.010000000     6.446000000     7.355000000
H     0.779000000     6.372000000     6.054000000
O    -0.249000000     8.672000000    -0.124000000
H    -0.619000000     8.006000000    -0.703000000
H    -0.052000000     8.203000000     0.686000000
O     1.509000000    10.352000000    -1.527000000
H     0.934000000     9.752000000    -1.052000000
H     1.538000000    11.138000000    -0.981000000
