215
-1448.16470
C     2.977000000    -4.476000000     1.575000000
H     3.046000000    -4.854000000     0.559000000
C     1.688000000    -4.107000000     2.139000000
C     1.679000000    -3.792000000     3.492000000
H     0.695000000    -3.580000000     3.904000000
C     0.414000000    -4.095000000     1.329000000
O     0.577000000    -4.976000000     0.234000000
H     0.313000000    -3.081000000     0.916000000
O    -0.713000000    -4.374000000     2.217000000
C    -1.925000000    -3.698000000     1.876000000
C    -2.375000000    -2.712000000     2.720000000
H    -1.849000000    -2.562000000     3.659000000
C    -3.473000000    -1.947000000     2.411000000
O    -3.722000000    -0.868000000     3.301000000
C    -4.086000000    -2.146000000     1.158000000
C    -5.274000000    -1.335000000     0.862000000
H    -5.884000000    -1.922000000     0.172000000
C    -4.870000000    -0.067000000     0.164000000
C    -4.887000000    -0.070000000    -1.197000000
H    -5.221000000    -0.988000000    -1.671000000
H    -5.874000000    -1.125000000     1.750000000
C    -3.730000000    -3.200000000     0.287000000
H    -4.357000000    -3.314000000    -0.594000000
C    -2.666000000    -4.024000000     0.676000000
C    -2.228000000    -5.121000000    -0.237000000
H    -3.146000000    -5.364000000    -0.777000000
H    -1.864000000    -6.039000000     0.229000000
C    -1.248000000    -4.608000000    -1.325000000
C    -1.706000000    -3.980000000    -2.454000000
H    -2.774000000    -3.899000000    -2.634000000
C     0.089000000    -4.559000000    -1.037000000
C     1.012000000    -3.985000000    -1.897000000
H     2.078000000    -4.040000000    -1.693000000
C     0.590000000    -3.335000000    -3.038000000
O     1.562000000    -2.768000000    -3.884000000
C     1.670000000    -1.311000000    -3.960000000
C     3.097000000    -0.838000000    -3.895000000
C     3.425000000     0.404000000    -4.438000000
H     2.631000000     1.044000000    -4.813000000
C     4.055000000    -1.564000000    -3.218000000
H     3.831000000    -2.524000000    -2.759000000
O     0.840000000    -0.792000000    -4.996000000
H     1.240000000    -0.869000000    -3.049000000
C    -0.751000000    -3.406000000    -3.332000000
C    -1.293000000    -2.774000000    -4.649000000
H    -2.176000000    -3.274000000    -5.051000000
H    -0.488000000    -2.963000000    -5.363000000
C    -1.510000000    -1.288000000    -4.592000000
C    -2.712000000    -0.876000000    -4.097000000
H    -3.352000000    -1.717000000    -3.843000000
C    -0.421000000    -0.394000000    -4.651000000
C    -0.636000000     0.972000000    -4.355000000
H     0.250000000     1.601000000    -4.365000000
C    -1.860000000     1.384000000    -3.877000000
O    -2.008000000     2.747000000    -3.565000000
C    -2.174000000     3.070000000    -2.137000000
C    -1.280000000     4.158000000    -1.646000000
C     0.035000000     4.100000000    -2.009000000
H     0.263000000     3.248000000    -2.643000000
C    -1.738000000     5.131000000    -0.722000000
H    -2.757000000     5.142000000    -0.343000000
O    -3.546000000     3.272000000    -1.765000000
H    -1.779000000     2.154000000    -1.673000000
C    -2.955000000     0.504000000    -3.773000000
C    -4.341000000     0.979000000    -3.435000000
H    -4.976000000     0.172000000    -3.808000000
H    -4.600000000     1.915000000    -3.935000000
C    -4.414000000     1.057000000    -1.925000000
C    -4.160000000     2.194000000    -1.222000000
C    -4.204000000     2.250000000     0.181000000
H    -3.818000000     3.100000000     0.739000000
C    -4.571000000     1.075000000     0.854000000
O    -4.478000000     1.022000000     2.207000000
C    -3.341000000     0.377000000     2.807000000
H    -2.590000000     0.341000000     2.005000000
C    -2.571000000     1.190000000     3.815000000
C    -1.616000000     0.512000000     4.612000000
H    -1.543000000    -0.572000000     4.577000000
C    -2.505000000     2.595000000     3.698000000
H    -3.237000000     3.053000000     3.037000000
C    -1.683000000     3.331000000     4.532000000
O    -1.624000000     4.710000000     4.664000000
C    -0.757000000     2.629000000     5.343000000
H    -0.027000000     3.206000000     5.905000000
C    -0.706000000     1.246000000     5.324000000
O     0.304000000     0.701000000     6.105000000
C     0.535000000    -0.602000000     6.437000000
C     1.593000000    -1.247000000     5.792000000
H     2.144000000    -0.752000000     4.997000000
C    -0.388000000    -1.263000000     7.282000000
H    -1.235000000    -0.723000000     7.697000000
C    -0.031000000    -2.543000000     7.705000000
H    -0.632000000    -2.843000000     8.560000000
C     1.032000000    -3.231000000     7.167000000
H     1.390000000    -4.197000000     7.514000000
C     1.755000000    -2.606000000     6.116000000
O     2.801000000    -3.238000000     5.534000000
C     2.859000000    -3.613000000     4.206000000
C     4.069000000    -3.857000000     3.607000000
H     4.972000000    -3.764000000     4.205000000
C     4.166000000    -4.250000000     2.307000000
O     5.370000000    -4.594000000     1.762000000
C     5.742000000    -4.249000000     0.465000000
C     5.702000000    -2.929000000    -0.027000000
H     5.443000000    -2.132000000     0.665000000
C     6.144000000    -5.335000000    -0.308000000
H     6.212000000    -6.331000000     0.122000000
C     6.348000000    -5.137000000    -1.664000000
H     6.533000000    -6.103000000    -2.126000000
C     6.449000000    -3.853000000    -2.151000000
H     6.759000000    -3.676000000    -3.177000000
C     6.130000000    -2.757000000    -1.382000000
O     6.235000000    -1.499000000    -1.995000000
C     5.258000000    -0.949000000    -2.872000000
C     5.568000000     0.265000000    -3.445000000
H     6.580000000     0.621000000    -3.271000000
C     4.681000000     0.910000000    -4.235000000
O     5.054000000     2.210000000    -4.604000000
C     4.086000000     3.234000000    -4.558000000
C     3.741000000     3.795000000    -3.292000000
H     4.167000000     3.449000000    -2.354000000
C     3.383000000     3.593000000    -5.703000000
H     3.646000000     3.144000000    -6.658000000
C     2.337000000     4.491000000    -5.604000000
H     1.726000000     4.784000000    -6.454000000
C     2.000000000     5.077000000    -4.385000000
H     1.162000000     5.765000000    -4.312000000
C     2.647000000     4.679000000    -3.200000000
O     2.224000000     5.152000000    -2.020000000
C     0.905000000     5.136000000    -1.628000000
C     0.458000000     6.095000000    -0.709000000
H     1.159000000     6.725000000    -0.168000000
C    -0.919000000     6.169000000    -0.364000000
O    -1.426000000     7.144000000     0.479000000
C    -1.797000000     6.968000000     1.738000000
C    -2.695000000     7.917000000     2.162000000
H    -2.870000000     8.872000000     1.672000000
C    -3.368000000     7.691000000     3.350000000
H    -4.115000000     8.414000000     3.666000000
C    -3.053000000     6.568000000     4.159000000
H    -3.535000000     6.435000000     5.125000000
C    -2.079000000     5.661000000     3.750000000
C    -1.560000000     5.791000000     2.483000000
H    -0.818000000     5.046000000     2.209000000
C     1.004000000     1.383000000     1.896000000
H     0.823000000     2.303000000     2.446000000
C    -0.058000000     0.845000000     1.143000000
H    -0.994000000     1.347000000     0.915000000
C     0.201000000    -0.293000000     0.385000000
H    -0.584000000    -0.687000000    -0.258000000
C     1.465000000    -0.932000000     0.305000000
H     1.643000000    -1.862000000    -0.228000000
C     2.486000000    -0.417000000     1.120000000
H     3.496000000    -0.815000000     1.072000000
C     2.219000000     0.695000000     1.927000000
C     3.246000000     1.275000000     2.863000000
O     4.195000000     0.579000000     3.188000000
O     3.144000000     2.468000000     3.154000000
O     2.896000000     5.079000000     3.535000000
H     2.997000000     4.137000000     3.394000000
H     3.784000000     5.392000000     3.707000000
O     8.423000000     0.698000000    -0.451000000
H     7.774000000     0.339000000    -1.056000000
H     7.908000000     1.021000000     0.289000000
O     5.283000000    -2.001000000     6.243000000
H     4.438000000    -2.418000000     6.074000000
H     5.090000000    -1.324000000     6.892000000
O     5.933000000     1.348000000     1.009000000
H     5.556000000     1.217000000     1.879000000
H     5.225000000     1.741000000     0.498000000
O     0.590000000     1.376000000     8.814000000
H    -0.275000000     1.137000000     8.482000000
H     1.020000000     1.805000000     8.075000000
O     8.754000000     0.100000000     3.143000000
H     7.936000000    -0.392000000     3.072000000
H     8.655000000     0.614000000     3.945000000
O     5.323000000     6.410000000     3.336000000
H     6.112000000     6.394000000     2.795000000
H     4.882000000     7.224000000     3.093000000
O     8.348000000    -3.017000000     4.742000000
H     7.647000000    -2.369000000     4.675000000
H     8.463000000    -3.149000000     5.683000000
O     4.084000000     3.869000000     0.480000000
H     3.678000000     3.718000000     1.333000000
H     3.404000000     4.300000000    -0.037000000
O     5.748000000     1.684000000     5.106000000
H     5.099000000     2.357000000     5.312000000
H     5.315000000     1.121000000     4.464000000
O     4.172000000     2.900000000     8.608000000
H     3.999000000     2.780000000     7.674000000
H     3.816000000     3.765000000     8.809000000
O     8.376000000     1.962000000     5.305000000
H     7.478000000     1.654000000     5.183000000
H     8.562000000     2.474000000     4.518000000
O     1.520000000     4.320000000     7.628000000
H     0.857000000     4.390000000     8.315000000
H     2.354000000     4.386000000     8.092000000
O     3.208000000     2.883000000     5.908000000
H     2.386000000     3.299000000     6.166000000
H     3.021000000     2.494000000     5.053000000
O     1.294000000     7.579000000     3.729000000
H     0.994000000     7.543000000     4.637000000
H     1.794000000     6.772000000     3.610000000
O     6.727000000     4.522000000     5.407000000
H     6.453000000     3.678000000     5.047000000
H     6.151000000     5.160000000     4.987000000
O     8.163000000     2.957000000     2.824000000
H     7.515000000     2.373000000     2.429000000
H     7.789000000     3.833000000     2.721000000
O     6.425000000    -1.022000000     3.537000000
H     6.127000000    -1.022000000     4.447000000
H     5.661000000    -0.737000000     3.035000000
O     6.212000000     4.823000000    -1.065000000
H     7.009000000     5.233000000    -0.729000000
H     5.801000000     4.432000000    -0.293000000
