215
-1445.24279
C     2.715000000    -1.876000000     3.975000000
H     3.195000000    -2.430000000     3.173000000
C     1.324000000    -1.931000000     4.291000000
C     0.816000000    -1.193000000     5.274000000
H    -0.236000000    -1.178000000     5.548000000
C     0.398000000    -2.693000000     3.376000000
O     1.061000000    -3.785000000     2.764000000
H     0.223000000    -1.958000000     2.576000000
O    -0.847000000    -3.074000000     3.980000000
C    -1.935000000    -2.832000000     3.167000000
C    -2.497000000    -1.572000000     3.316000000
H    -2.195000000    -0.968000000     4.168000000
C    -3.544000000    -1.228000000     2.548000000
O    -4.011000000    -0.017000000     2.626000000
C    -4.050000000    -2.089000000     1.553000000
C    -5.157000000    -1.596000000     0.618000000
H    -5.823000000    -2.428000000     0.380000000
C    -4.637000000    -0.849000000    -0.604000000
C    -4.376000000    -1.555000000    -1.778000000
H    -4.466000000    -2.635000000    -1.859000000
H    -5.889000000    -0.917000000     1.060000000
C    -3.496000000    -3.375000000     1.399000000
H    -3.936000000    -4.022000000     0.645000000
C    -2.392000000    -3.712000000     2.171000000
C    -1.506000000    -5.001000000     1.826000000
H    -2.074000000    -5.888000000     1.538000000
H    -1.124000000    -5.185000000     2.832000000
C    -0.298000000    -4.719000000     1.023000000
C    -0.434000000    -5.014000000    -0.331000000
H    -1.352000000    -5.499000000    -0.653000000
C     0.931000000    -4.209000000     1.474000000
C     2.033000000    -3.969000000     0.609000000
H     2.924000000    -3.530000000     1.050000000
C     1.824000000    -4.349000000    -0.778000000
O     2.873000000    -4.090000000    -1.661000000
C     2.786000000    -2.824000000    -2.319000000
C     4.090000000    -2.097000000    -2.401000000
C     4.444000000    -1.385000000    -3.506000000
H     3.853000000    -1.354000000    -4.418000000
C     4.846000000    -2.104000000    -1.270000000
H     4.468000000    -2.658000000    -0.415000000
O     2.210000000    -2.838000000    -3.678000000
H     2.238000000    -2.110000000    -1.686000000
C     0.599000000    -4.756000000    -1.253000000
C     0.260000000    -4.942000000    -2.792000000
H    -0.415000000    -5.794000000    -2.893000000
H     1.138000000    -5.164000000    -3.403000000
C    -0.148000000    -3.574000000    -3.395000000
C    -1.478000000    -3.316000000    -3.607000000
H    -2.223000000    -4.064000000    -3.347000000
C     0.805000000    -2.641000000    -3.825000000
C     0.436000000    -1.484000000    -4.481000000
H     1.166000000    -0.756000000    -4.824000000
C    -0.976000000    -1.190000000    -4.593000000
O    -1.219000000     0.179000000    -4.916000000
C    -1.662000000     1.127000000    -3.928000000
C    -0.976000000     2.508000000    -3.995000000
C     0.400000000     2.537000000    -4.159000000
H     0.888000000     1.570000000    -4.244000000
C    -1.725000000     3.716000000    -3.805000000
H    -2.808000000     3.760000000    -3.723000000
O    -3.119000000     1.167000000    -3.880000000
H    -1.198000000     0.863000000    -2.966000000
C    -1.924000000    -2.091000000    -4.125000000
C    -3.419000000    -1.763000000    -4.139000000
H    -4.004000000    -2.684000000    -4.086000000
H    -3.722000000    -1.337000000    -5.097000000
C    -3.854000000    -0.920000000    -2.922000000
C    -3.637000000     0.461000000    -2.865000000
C    -3.809000000     1.135000000    -1.676000000
H    -3.602000000     2.200000000    -1.602000000
C    -4.355000000     0.458000000    -0.573000000
O    -4.495000000     1.226000000     0.563000000
C    -3.552000000     1.033000000     1.677000000
H    -2.612000000     0.680000000     1.227000000
C    -3.269000000     2.367000000     2.267000000
C    -2.806000000     2.509000000     3.567000000
H    -2.607000000     1.646000000     4.196000000
C    -3.321000000     3.561000000     1.546000000
H    -3.716000000     3.633000000     0.536000000
C    -2.900000000     4.778000000     2.055000000
O    -3.071000000     5.985000000     1.375000000
C    -2.435000000     4.883000000     3.313000000
H    -2.072000000     5.803000000     3.764000000
C    -2.493000000     3.739000000     4.135000000
O    -1.917000000     3.852000000     5.388000000
C    -1.660000000     2.716000000     6.155000000
C    -0.385000000     2.134000000     6.129000000
H     0.359000000     2.522000000     5.438000000
C    -2.619000000     2.152000000     7.006000000
H    -3.608000000     2.561000000     7.195000000
C    -2.306000000     1.062000000     7.834000000
H    -3.098000000     0.591000000     8.411000000
C    -1.048000000     0.577000000     7.914000000
H    -0.827000000    -0.327000000     8.476000000
C    -0.101000000     1.121000000     7.074000000
O     1.176000000     0.584000000     6.983000000
C     1.612000000    -0.207000000     5.945000000
C     2.975000000    -0.167000000     5.656000000
H     3.592000000     0.582000000     6.144000000
C     3.560000000    -1.000000000     4.742000000
O     4.965000000    -0.902000000     4.529000000
C     5.478000000    -1.650000000     3.512000000
C     5.780000000    -1.083000000     2.298000000
H     5.656000000    -0.018000000     2.116000000
C     5.715000000    -3.016000000     3.675000000
H     5.526000000    -3.424000000     4.665000000
C     6.188000000    -3.808000000     2.584000000
H     6.387000000    -4.872000000     2.688000000
C     6.488000000    -3.217000000     1.348000000
H     6.928000000    -3.844000000     0.577000000
C     6.233000000    -1.850000000     1.217000000
O     6.662000000    -1.168000000     0.061000000
C     5.976000000    -1.288000000    -1.187000000
C     6.333000000    -0.509000000    -2.234000000
H     7.121000000     0.239000000    -2.267000000
C     5.481000000    -0.509000000    -3.375000000
O     5.845000000     0.468000000    -4.286000000
C     4.826000000     1.235000000    -4.847000000
C     4.219000000     2.239000000    -4.113000000
H     4.409000000     2.496000000    -3.074000000
C     4.480000000     1.013000000    -6.160000000
H     5.047000000     0.276000000    -6.723000000
C     3.600000000     1.784000000    -6.890000000
H     3.467000000     1.676000000    -7.963000000
C     2.913000000     2.697000000    -6.102000000
H     2.094000000     3.197000000    -6.615000000
C     3.162000000     2.879000000    -4.771000000
O     2.435000000     3.721000000    -4.036000000
C     1.104000000     3.714000000    -4.074000000
C     0.428000000     4.891000000    -3.788000000
H     0.963000000     5.836000000    -3.744000000
C    -0.980000000     4.884000000    -3.577000000
O    -1.592000000     6.072000000    -3.152000000
C    -2.578000000     6.159000000    -2.265000000
C    -3.880000000     6.586000000    -2.643000000
H    -4.077000000     6.741000000    -3.700000000
C    -4.902000000     6.879000000    -1.676000000
H    -5.892000000     7.250000000    -1.926000000
C    -4.568000000     6.601000000    -0.313000000
H    -5.292000000     6.832000000     0.464000000
C    -3.317000000     6.145000000     0.032000000
C    -2.304000000     5.913000000    -0.895000000
H    -1.288000000     5.715000000    -0.562000000
C     0.322000000     2.892000000    -0.286000000
H    -0.279000000     3.783000000    -0.450000000
C    -0.308000000     1.604000000    -0.287000000
H    -1.386000000     1.623000000    -0.423000000
C     0.360000000     0.364000000    -0.109000000
H    -0.256000000    -0.523000000     0.089000000
C     1.761000000     0.459000000    -0.026000000
H     2.426000000    -0.396000000     0.061000000
C     2.426000000     1.697000000    -0.136000000
H     3.513000000     1.697000000    -0.139000000
C     1.662000000     2.886000000    -0.166000000
C     2.383000000     4.206000000    -0.185000000
O     3.551000000     4.308000000     0.054000000
O     1.769000000     5.203000000    -0.276000000
O     1.497000000     3.678000000     3.361000000
H     1.053000000     4.509000000     3.195000000
H     1.100000000     3.066000000     2.742000000
O     0.270000000     9.251000000     3.394000000
H     1.194000000     9.006000000     3.348000000
H     0.268000000    10.202000000     3.286000000
O     4.292000000     3.464000000     2.630000000
H     3.480000000     3.341000000     3.120000000
H     4.055000000     4.060000000     1.919000000
O     5.323000000     7.964000000    -1.314000000
H     5.585000000     7.047000000    -1.233000000
H     4.410000000     7.927000000    -1.600000000
O     7.431000000     4.907000000    -0.382000000
H     6.983000000     5.573000000     0.140000000
H     7.749000000     4.273000000     0.260000000
O     3.365000000     9.579000000     0.925000000
H     3.262000000     8.650000000     0.717000000
H     4.132000000     9.853000000     0.423000000
O     6.854000000     3.336000000     3.653000000
H     5.963000000     3.366000000     3.305000000
H     6.756000000     2.967000000     4.530000000
O     2.341000000     8.502000000    -4.221000000
H     3.292000000     8.611000000    -4.206000000
H     2.142000000     8.021000000    -3.418000000
O     5.043000000     5.135000000    -1.829000000
H     5.804000000     4.783000000    -1.368000000
H     4.302000000     4.937000000    -1.256000000
O    -0.981000000     7.912000000     1.365000000
H    -0.480000000     7.097000000     1.380000000
H    -0.681000000     8.392000000     2.136000000
O     1.009000000     6.250000000     2.027000000
H     1.777000000     6.807000000     2.156000000
H     1.127000000     5.877000000     1.153000000
O     5.148000000     5.688000000     5.119000000
H     6.057000000     5.688000000     4.820000000
H     4.666000000     5.245000000     4.421000000
O     3.925000000     6.711000000     1.452000000
H     4.585000000     6.326000000     2.028000000
H     3.678000000     6.000000000     0.861000000
O     6.916000000     6.704000000     1.645000000
H     6.762000000     7.476000000     2.191000000
H     7.781000000     6.392000000     1.910000000
O     2.814000000     8.239000000     3.915000000
H     3.596000000     8.050000000     3.397000000
H     3.109000000     8.864000000     4.577000000
O     2.210000000     7.481000000    -1.725000000
H     2.305000000     6.651000000    -1.258000000
H     1.402000000     7.860000000    -1.381000000
O     4.850000000     6.506000000    -4.283000000
H     3.934000000     6.450000000    -4.558000000
H     4.972000000     5.755000000    -3.702000000
O     0.546000000     6.822000000     5.056000000
H     1.085000000     7.466000000     4.596000000
H    -0.287000000     7.269000000     5.205000000
O     0.068000000     8.731000000    -1.121000000
H    -0.655000000     8.832000000    -1.740000000
H    -0.352000000     8.724000000    -0.261000000
