215
-1433.27408
C     2.597000000    -1.332000000     4.638000000
H     3.052000000    -2.128000000     4.054000000
C     1.143000000    -1.404000000     4.747000000
C     0.532000000    -0.443000000     5.622000000
H    -0.554000000    -0.448000000     5.567000000
C     0.289000000    -2.303000000     3.815000000
O     0.865000000    -3.490000000     3.473000000
H     0.246000000    -1.716000000     2.886000000
O    -1.056000000    -2.602000000     4.290000000
C    -2.035000000    -2.385000000     3.370000000
C    -2.810000000    -1.216000000     3.450000000
H    -2.632000000    -0.428000000     4.178000000
C    -3.842000000    -0.979000000     2.552000000
O    -4.314000000     0.304000000     2.416000000
C    -4.205000000    -1.956000000     1.640000000
C    -5.241000000    -1.739000000     0.577000000
H    -5.627000000    -2.684000000     0.189000000
C    -4.616000000    -1.050000000    -0.680000000
C    -4.153000000    -1.880000000    -1.672000000
H    -4.422000000    -2.930000000    -1.594000000
H    -6.016000000    -1.043000000     0.906000000
C    -3.520000000    -3.179000000     1.742000000
H    -3.834000000    -3.926000000     1.017000000
C    -2.434000000    -3.411000000     2.564000000
C    -1.687000000    -4.715000000     2.475000000
H    -2.362000000    -5.431000000     2.000000000
H    -1.401000000    -5.091000000     3.459000000
C    -0.390000000    -4.466000000     1.660000000
C    -0.412000000    -4.897000000     0.290000000
H    -1.309000000    -5.311000000    -0.163000000
C     0.773000000    -3.841000000     2.133000000
C     1.837000000    -3.572000000     1.283000000
H     2.648000000    -2.953000000     1.658000000
C     1.840000000    -3.977000000     0.012000000
O     2.936000000    -3.641000000    -0.717000000
C     2.814000000    -2.572000000    -1.714000000
C     4.117000000    -1.800000000    -1.695000000
C     4.547000000    -1.192000000    -2.871000000
H     4.073000000    -1.477000000    -3.806000000
C     4.751000000    -1.480000000    -0.512000000
H     4.327000000    -1.939000000     0.378000000
O     2.463000000    -3.201000000    -2.970000000
H     2.052000000    -1.806000000    -1.510000000
C     0.698000000    -4.634000000    -0.577000000
C     0.735000000    -5.188000000    -1.971000000
H     0.023000000    -6.013000000    -2.029000000
H     1.697000000    -5.594000000    -2.291000000
C     0.244000000    -4.058000000    -2.919000000
C    -1.113000000    -3.936000000    -3.218000000
H    -1.808000000    -4.693000000    -2.863000000
C     1.190000000    -3.179000000    -3.393000000
C     0.785000000    -2.036000000    -4.064000000
H     1.571000000    -1.324000000    -4.302000000
C    -0.561000000    -1.824000000    -4.350000000
O    -0.896000000    -0.616000000    -4.966000000
C    -1.334000000     0.504000000    -4.077000000
C    -0.732000000     1.789000000    -4.484000000
C     0.541000000     1.891000000    -5.117000000
H     1.087000000     0.962000000    -5.259000000
C    -1.286000000     3.040000000    -4.064000000
H    -2.307000000     3.057000000    -3.691000000
O    -2.719000000     0.501000000    -4.000000000
H    -1.019000000     0.115000000    -3.098000000
C    -1.499000000    -2.764000000    -3.831000000
C    -2.997000000    -2.427000000    -3.924000000
H    -3.568000000    -3.356000000    -3.870000000
H    -3.174000000    -2.037000000    -4.929000000
C    -3.564000000    -1.446000000    -2.858000000
C    -3.371000000    -0.084000000    -2.925000000
C    -3.995000000     0.815000000    -2.055000000
H    -3.839000000     1.890000000    -2.099000000
C    -4.559000000     0.318000000    -0.880000000
O    -4.797000000     1.248000000     0.108000000
C    -3.847000000     1.162000000     1.236000000
H    -2.963000000     0.705000000     0.768000000
C    -3.412000000     2.519000000     1.797000000
C    -3.212000000     2.816000000     3.099000000
H    -3.227000000     2.052000000     3.872000000
C    -3.377000000     3.571000000     0.915000000
H    -3.417000000     3.356000000    -0.150000000
C    -3.152000000     4.922000000     1.381000000
O    -3.061000000     6.011000000     0.455000000
C    -2.933000000     5.162000000     2.722000000
H    -2.735000000     6.159000000     3.108000000
C    -2.963000000     4.051000000     3.599000000
O    -2.692000000     4.322000000     4.917000000
C    -2.342000000     3.374000000     5.876000000
C    -1.058000000     2.836000000     5.925000000
H    -0.257000000     3.163000000     5.267000000
C    -3.238000000     2.926000000     6.821000000
H    -4.271000000     3.253000000     6.734000000
C    -2.909000000     1.864000000     7.694000000
H    -3.715000000     1.436000000     8.285000000
C    -1.590000000     1.451000000     7.778000000
H    -1.205000000     0.698000000     8.460000000
C    -0.632000000     1.896000000     6.849000000
O     0.688000000     1.574000000     6.918000000
C     1.265000000     0.565000000     6.203000000
C     2.664000000     0.561000000     6.045000000
H     3.321000000     1.313000000     6.475000000
C     3.334000000    -0.348000000     5.247000000
O     4.709000000    -0.243000000     5.044000000
C     5.337000000    -0.953000000     4.017000000
C     5.434000000    -0.294000000     2.769000000
H     4.921000000     0.624000000     2.497000000
C     5.934000000    -2.173000000     4.239000000
H     5.603000000    -2.675000000     5.145000000
C     6.589000000    -2.841000000     3.225000000
H     7.035000000    -3.820000000     3.380000000
C     6.715000000    -2.198000000     2.007000000
H     7.020000000    -2.700000000     1.092000000
C     6.195000000    -0.936000000     1.822000000
O     6.484000000    -0.297000000     0.659000000
C     5.795000000    -0.598000000    -0.468000000
C     6.375000000    -0.142000000    -1.642000000
H     7.346000000     0.343000000    -1.703000000
C     5.647000000    -0.360000000    -2.831000000
O     5.987000000     0.333000000    -3.976000000
C     5.087000000     0.602000000    -4.978000000
C     4.179000000     1.642000000    -4.762000000
H     4.308000000     2.282000000    -3.893000000
C     5.030000000    -0.257000000    -6.061000000
H     5.720000000    -1.096000000    -6.094000000
C     4.146000000     0.034000000    -7.112000000
H     4.106000000    -0.439000000    -8.089000000
C     3.234000000     1.129000000    -7.006000000
H     2.485000000     1.406000000    -7.743000000
C     3.297000000     1.960000000    -5.845000000
O     2.484000000     3.071000000    -5.723000000
C     1.132000000     3.106000000    -5.306000000
C     0.406000000     4.265000000    -5.089000000
H     0.797000000     5.255000000    -5.309000000
C    -0.699000000     4.224000000    -4.339000000
O    -1.170000000     5.484000000    -3.923000000
C    -2.256000000     5.490000000    -3.030000000
C    -3.454000000     5.858000000    -3.581000000
H    -3.546000000     5.924000000    -4.662000000
C    -4.521000000     6.204000000    -2.833000000
H    -5.431000000     6.511000000    -3.342000000
C    -4.361000000     6.247000000    -1.446000000
H    -5.167000000     6.497000000    -0.760000000
C    -3.164000000     5.881000000    -0.906000000
C    -2.090000000     5.569000000    -1.705000000
H    -1.143000000     5.456000000    -1.184000000
C     0.326000000     2.566000000    -0.836000000
H    -0.109000000     3.447000000    -1.300000000
C    -0.508000000     1.434000000    -0.578000000
H    -1.582000000     1.587000000    -0.655000000
C     0.017000000     0.276000000    -0.139000000
H    -0.589000000    -0.567000000     0.093000000
C     1.376000000     0.224000000     0.135000000
H     1.793000000    -0.677000000     0.578000000
C     2.188000000     1.326000000    -0.041000000
H     3.238000000     1.219000000     0.217000000
C     1.677000000     2.498000000    -0.586000000
C     2.535000000     3.691000000    -0.821000000
O     3.732000000     3.601000000    -0.677000000
O     2.080000000     4.806000000    -0.920000000
O     0.507000000     4.431000000     1.997000000
H     0.732000000     4.910000000     1.200000000
H     0.217000000     3.573000000     1.686000000
O     3.980000000     4.152000000     1.937000000
H     3.071000000     4.200000000     2.234000000
H     3.916000000     3.935000000     1.007000000
O     4.926000000     5.939000000    -1.423000000
H     4.264000000     5.261000000    -1.564000000
H     4.552000000     6.501000000    -0.744000000
O     4.766000000     5.187000000    -6.120000000
H     4.661000000     6.027000000    -6.567000000
H     4.148000000     4.603000000    -6.559000000
O     8.312000000     2.275000000    -2.790000000
H     7.366000000     2.313000000    -2.648000000
H     8.533000000     3.128000000    -3.163000000
O     7.510000000     5.258000000    -1.035000000
H     6.680000000     5.732000000    -0.997000000
H     7.644000000     4.937000000    -0.143000000
O     4.038000000     8.495000000     0.181000000
H     4.504000000     7.983000000     0.843000000
H     3.245000000     8.795000000     0.626000000
O     5.613000000     4.211000000     3.942000000
H     4.844000000     4.020000000     3.406000000
H     5.378000000     3.902000000     4.817000000
O     3.193000000     7.821000000    -4.783000000
H     4.069000000     7.448000000    -4.683000000
H     2.671000000     7.394000000    -4.104000000
O     5.853000000     3.336000000    -2.250000000
H     6.606000000     3.864000000    -1.984000000
H     5.167000000     3.563000000    -1.621000000
O    -0.760000000     8.051000000     1.947000000
H    -1.660000000     7.817000000     1.719000000
H    -0.224000000     7.611000000     1.286000000
O     0.978000000     6.786000000     0.352000000
H     1.418000000     7.625000000     0.211000000
H     1.508000000     6.154000000    -0.134000000
O     5.134000000     6.680000000     1.593000000
H     6.073000000     6.831000000     1.698000000
H     5.015000000     5.753000000     1.802000000
O     0.745000000     5.529000000     4.529000000
H     0.490000000     6.394000000     4.208000000
H     0.917000000     5.021000000     3.736000000
O     2.016000000     6.606000000    -2.833000000
H     1.968000000     5.954000000    -2.134000000
H     1.316000000     7.226000000    -2.632000000
O     2.758000000    10.039000000    -2.240000000
H     3.370000000     9.435000000    -1.820000000
H     2.259000000     9.491000000    -2.847000000
O     5.704000000     7.053000000    -4.093000000
H     5.669000000     6.145000000    -4.395000000
H     5.628000000     6.992000000    -3.141000000
O     7.576000000     3.971000000     1.397000000
H     6.838000000     3.898000000     2.003000000
H     8.195000000     3.303000000     1.693000000
O    -0.352000000     8.307000000    -2.294000000
H    -0.869000000     7.967000000    -3.024000000
H    -1.001000000     8.578000000    -1.645000000
