215
-1447.00426
C     2.596000000    -0.979000000     4.419000000
H     2.967000000    -1.808000000     3.821000000
C     1.221000000    -0.887000000     4.665000000
C     0.694000000     0.104000000     5.493000000
H    -0.386000000     0.143000000     5.606000000
C     0.314000000    -1.891000000     3.935000000
O     1.063000000    -3.083000000     3.615000000
H    -0.021000000    -1.440000000     2.989000000
O    -0.910000000    -2.243000000     4.584000000
C    -2.047000000    -2.144000000     3.782000000
C    -2.711000000    -0.941000000     3.697000000
H    -2.558000000    -0.065000000     4.323000000
C    -3.699000000    -0.717000000     2.697000000
O    -4.248000000     0.490000000     2.439000000
C    -4.055000000    -1.799000000     1.861000000
C    -5.137000000    -1.682000000     0.736000000
H    -5.544000000    -2.635000000     0.392000000
C    -4.634000000    -1.033000000    -0.579000000
C    -4.286000000    -1.885000000    -1.650000000
H    -4.454000000    -2.959000000    -1.638000000
H    -6.061000000    -1.257000000     1.135000000
C    -3.417000000    -3.024000000     2.012000000
H    -3.578000000    -3.805000000     1.274000000
C    -2.368000000    -3.177000000     2.911000000
C    -1.524000000    -4.439000000     2.892000000
H    -2.126000000    -5.293000000     2.575000000
H    -1.178000000    -4.785000000     3.868000000
C    -0.301000000    -4.232000000     1.945000000
C    -0.412000000    -4.661000000     0.596000000
H    -1.403000000    -4.976000000     0.280000000
C     0.923000000    -3.672000000     2.361000000
C     1.986000000    -3.626000000     1.502000000
H     2.928000000    -3.243000000     1.887000000
C     1.869000000    -4.046000000     0.199000000
O     2.910000000    -3.745000000    -0.672000000
C     2.750000000    -2.605000000    -1.557000000
C     4.007000000    -1.874000000    -1.573000000
C     4.286000000    -1.072000000    -2.652000000
H     3.549000000    -0.999000000    -3.447000000
C     4.907000000    -1.890000000    -0.481000000
H     4.814000000    -2.638000000     0.302000000
O     2.318000000    -3.081000000    -2.869000000
H     1.964000000    -1.885000000    -1.282000000
C     0.695000000    -4.577000000    -0.222000000
C     0.589000000    -4.994000000    -1.629000000
H    -0.248000000    -5.694000000    -1.687000000
H     1.479000000    -5.500000000    -2.008000000
C     0.116000000    -3.870000000    -2.554000000
C    -1.277000000    -3.694000000    -2.797000000
H    -2.034000000    -4.283000000    -2.285000000
C     1.034000000    -2.991000000    -3.198000000
C     0.591000000    -2.089000000    -4.144000000
H     1.285000000    -1.394000000    -4.609000000
C    -0.776000000    -1.882000000    -4.307000000
O    -1.168000000    -0.740000000    -4.969000000
C    -1.534000000     0.381000000    -4.199000000
C    -0.922000000     1.671000000    -4.719000000
C     0.289000000     1.608000000    -5.470000000
H     0.668000000     0.625000000    -5.738000000
C    -1.273000000     2.858000000    -4.086000000
H    -2.111000000     2.870000000    -3.395000000
O    -2.942000000     0.360000000    -4.181000000
H    -1.217000000     0.256000000    -3.153000000
C    -1.675000000    -2.707000000    -3.682000000
C    -3.201000000    -2.368000000    -3.831000000
H    -3.822000000    -3.262000000    -3.737000000
H    -3.359000000    -2.101000000    -4.878000000
C    -3.687000000    -1.354000000    -2.857000000
C    -3.560000000    -0.004000000    -3.032000000
C    -3.921000000     0.785000000    -1.949000000
H    -3.773000000     1.852000000    -2.097000000
C    -4.468000000     0.325000000    -0.757000000
O    -4.660000000     1.234000000     0.251000000
C    -3.672000000     1.278000000     1.337000000
H    -2.798000000     0.694000000     1.012000000
C    -3.446000000     2.622000000     1.818000000
C    -3.063000000     2.998000000     3.094000000
H    -3.108000000     2.238000000     3.870000000
C    -3.248000000     3.600000000     0.889000000
H    -3.306000000     3.379000000    -0.173000000
C    -3.019000000     4.975000000     1.156000000
O    -3.055000000     5.956000000     0.187000000
C    -2.850000000     5.359000000     2.484000000
H    -2.589000000     6.407000000     2.602000000
C    -2.995000000     4.373000000     3.448000000
O    -2.757000000     4.735000000     4.778000000
C    -2.332000000     3.767000000     5.685000000
C    -1.007000000     3.379000000     5.634000000
H    -0.249000000     3.864000000     5.023000000
C    -3.156000000     3.072000000     6.553000000
H    -4.188000000     3.406000000     6.490000000
C    -2.652000000     2.118000000     7.473000000
H    -3.244000000     1.696000000     8.281000000
C    -1.261000000     1.838000000     7.482000000
H    -0.941000000     1.105000000     8.218000000
C    -0.471000000     2.489000000     6.568000000
O     0.886000000     2.164000000     6.576000000
C     1.493000000     1.085000000     5.978000000
C     2.852000000     0.984000000     5.700000000
H     3.561000000     1.702000000     6.104000000
C     3.418000000    -0.141000000     5.091000000
O     4.817000000    -0.176000000     4.895000000
C     5.395000000    -1.083000000     3.986000000
C     5.586000000    -0.636000000     2.648000000
H     5.320000000     0.343000000     2.257000000
C     5.774000000    -2.359000000     4.370000000
H     5.712000000    -2.628000000     5.421000000
C     6.395000000    -3.212000000     3.481000000
H     6.716000000    -4.226000000     3.703000000
C     6.702000000    -2.740000000     2.229000000
H     7.160000000    -3.417000000     1.512000000
C     6.417000000    -1.435000000     1.848000000
O     6.788000000    -1.053000000     0.600000000
C     6.016000000    -1.095000000    -0.529000000
C     6.296000000    -0.321000000    -1.628000000
H     7.218000000     0.254000000    -1.660000000
C     5.406000000    -0.342000000    -2.721000000
O     5.594000000     0.506000000    -3.771000000
C     4.791000000     0.507000000    -4.894000000
C     3.824000000     1.600000000    -5.042000000
H     3.728000000     2.294000000    -4.211000000
C     4.955000000    -0.410000000    -5.921000000
H     5.766000000    -1.133000000    -5.884000000
C     4.184000000    -0.318000000    -7.023000000
H     4.274000000    -1.071000000    -7.800000000
C     3.205000000     0.687000000    -7.114000000
H     2.649000000     0.753000000    -8.045000000
C     3.054000000     1.648000000    -6.121000000
O     2.145000000     2.697000000    -6.416000000
C     0.952000000     2.788000000    -5.708000000
C     0.447000000     4.017000000    -5.271000000
H     1.024000000     4.871000000    -5.617000000
C    -0.674000000     4.073000000    -4.480000000
O    -1.144000000     5.278000000    -4.149000000
C    -2.240000000     5.446000000    -3.441000000
C    -3.488000000     5.238000000    -3.944000000
H    -3.581000000     5.030000000    -5.007000000
C    -4.564000000     5.243000000    -3.105000000
H    -5.581000000     5.134000000    -3.475000000
C    -4.399000000     5.584000000    -1.774000000
H    -5.274000000     5.486000000    -1.137000000
C    -3.169000000     5.730000000    -1.201000000
C    -2.033000000     5.744000000    -2.057000000
H    -1.039000000     5.747000000    -1.617000000
C     0.199000000     2.483000000    -0.632000000
H    -0.137000000     3.323000000    -1.235000000
C    -0.518000000     1.315000000    -0.727000000
H    -1.447000000     1.279000000    -1.292000000
C    -0.068000000     0.181000000    -0.061000000
H    -0.640000000    -0.788000000    -0.177000000
C     1.055000000     0.179000000     0.733000000
H     1.372000000    -0.740000000     1.219000000
C     1.738000000     1.377000000     0.877000000
H     2.665000000     1.423000000     1.442000000
C     1.340000000     2.507000000     0.175000000
C     1.936000000     3.866000000     0.350000000
O     2.790000000     3.977000000     1.242000000
O     1.752000000     4.747000000    -0.476000000
O    -0.076000000     2.169000000     2.964000000
H     0.401000000     1.772000000     2.236000000
H    -0.969000000     2.277000000     2.636000000
O     1.116000000     6.975000000     2.378000000
H     0.498000000     7.050000000     3.105000000
H     1.424000000     6.069000000     2.419000000
O     2.240000000     3.859000000     3.947000000
H     1.492000000     3.265000000     3.877000000
H     2.631000000     3.855000000     3.074000000
O     3.861000000     6.667000000     0.002000000
H     2.950000000     6.413000000    -0.147000000
H     4.032000000     6.424000000     0.911000000
O     6.190000000     6.219000000    -1.079000000
H     5.356000000     6.449000000    -0.670000000
H     6.191000000     5.262000000    -1.101000000
O     3.461000000     9.082000000     2.518000000
H     2.679000000     8.597000000     2.255000000
H     4.189000000     8.496000000     2.310000000
O     4.986000000     2.981000000     2.770000000
H     4.444000000     3.605000000     2.288000000
H     5.872000000     3.341000000     2.717000000
O     3.177000000     7.864000000    -3.758000000
H     3.832000000     7.371000000    -4.252000000
H     2.574000000     7.199000000    -3.427000000
O     5.196000000     3.518000000    -0.438000000
H     4.449000000     3.475000000     0.160000000
H     5.821000000     2.884000000    -0.086000000
O     0.530000000     7.327000000    -0.353000000
H     0.535000000     7.212000000     0.597000000
H     0.902000000     6.514000000    -0.695000000
O     5.221000000     6.395000000     2.402000000
H     4.647000000     6.468000000     3.165000000
H     5.944000000     5.842000000     2.699000000
O     2.452000000     5.073000000     6.273000000
H     2.533000000     4.744000000     5.378000000
H     2.651000000     4.317000000     6.825000000
O     1.278000000     6.096000000    -3.041000000
H     1.423000000     5.287000000    -2.550000000
H     0.394000000     6.003000000    -3.398000000
O     3.573000000     8.983000000    -1.426000000
H     3.366000000     8.819000000    -2.346000000
H     3.520000000     8.122000000    -1.011000000
O     3.570000000     4.280000000    -2.450000000
H     4.408000000     4.030000000    -2.061000000
H     2.999000000     4.451000000    -1.701000000
O     0.353000000     8.990000000    -2.524000000
H     0.248000000     8.816000000    -1.589000000
H     0.590000000     8.143000000    -2.901000000
O     3.974000000     5.403000000    -5.076000000
H     4.114000000     4.878000000    -4.288000000
H     3.108000000     5.140000000    -5.388000000
O     7.305000000     4.686000000     2.407000000
H     7.408000000     4.070000000     1.682000000
H     7.657000000     5.511000000     2.072000000
O     3.991000000     7.275000000     4.633000000
H     3.440000000     8.055000000     4.564000000
H     3.432000000     6.623000000     5.053000000
