215
-1445.93248
C     1.193000000     0.344000000     5.034000000
H     1.883000000    -0.128000000     4.339000000
C    -0.087000000    -0.101000000     5.014000000
C    -1.095000000     0.621000000     5.669000000
H    -2.147000000     0.345000000     5.655000000
C    -0.393000000    -1.343000000     4.238000000
O     0.607000000    -2.395000000     4.371000000
H    -0.377000000    -1.111000000     3.163000000
O    -1.659000000    -1.832000000     4.631000000
C    -2.540000000    -2.000000000     3.591000000
C    -3.224000000    -0.939000000     3.048000000
H    -3.157000000     0.055000000     3.484000000
C    -3.902000000    -1.079000000     1.836000000
O    -4.513000000     0.041000000     1.352000000
C    -4.150000000    -2.360000000     1.318000000
C    -5.011000000    -2.524000000     0.023000000
H    -5.236000000    -3.591000000    -0.037000000
C    -4.316000000    -2.099000000    -1.332000000
C    -3.480000000    -3.011000000    -1.954000000
H    -3.517000000    -4.069000000    -1.707000000
H    -5.951000000    -1.994000000     0.190000000
C    -3.331000000    -3.410000000     1.777000000
H    -3.506000000    -4.396000000     1.353000000
C    -2.541000000    -3.245000000     2.947000000
C    -1.494000000    -4.247000000     3.383000000
H    -1.890000000    -5.259000000     3.276000000
H    -1.301000000    -4.214000000     4.458000000
C    -0.152000000    -4.021000000     2.710000000
C     0.151000000    -4.792000000     1.598000000
H    -0.583000000    -5.505000000     1.231000000
C     0.822000000    -3.183000000     3.253000000
C     2.049000000    -3.038000000     2.586000000
H     2.875000000    -2.493000000     3.036000000
C     2.235000000    -3.738000000     1.421000000
O     3.350000000    -3.367000000     0.792000000
C     3.221000000    -2.631000000    -0.421000000
C     4.032000000    -1.326000000    -0.550000000
C     4.825000000    -1.110000000    -1.710000000
H     4.938000000    -1.847000000    -2.501000000
C     4.047000000    -0.389000000     0.459000000
H     3.470000000    -0.527000000     1.370000000
O     3.401000000    -3.487000000    -1.507000000
H     2.189000000    -2.268000000    -0.530000000
C     1.302000000    -4.627000000     0.920000000
C     1.641000000    -5.414000000    -0.365000000
H     1.057000000    -6.335000000    -0.436000000
H     2.665000000    -5.786000000    -0.296000000
C     1.360000000    -4.641000000    -1.652000000
C     0.082000000    -4.745000000    -2.229000000
H    -0.580000000    -5.414000000    -1.686000000
C     2.178000000    -3.682000000    -2.128000000
C     1.791000000    -2.857000000    -3.212000000
H     2.490000000    -2.187000000    -3.706000000
C     0.493000000    -2.961000000    -3.739000000
O     0.144000000    -2.047000000    -4.683000000
C    -0.450000000    -0.906000000    -4.175000000
C     0.243000000     0.393000000    -4.552000000
C     1.451000000     0.369000000    -5.275000000
H     1.808000000    -0.526000000    -5.778000000
C    -0.323000000     1.543000000    -4.123000000
H    -1.233000000     1.627000000    -3.534000000
O    -1.890000000    -0.935000000    -4.490000000
H    -0.369000000    -0.960000000    -3.080000000
C    -0.354000000    -3.885000000    -3.219000000
C    -1.808000000    -3.833000000    -3.738000000
H    -2.258000000    -4.819000000    -3.609000000
H    -1.850000000    -3.767000000    -4.828000000
C    -2.713000000    -2.715000000    -3.092000000
C    -2.777000000    -1.397000000    -3.564000000
C    -3.502000000    -0.437000000    -2.876000000
H    -3.393000000     0.595000000    -3.197000000
C    -4.301000000    -0.802000000    -1.822000000
O    -4.687000000     0.268000000    -0.991000000
C    -3.901000000     0.594000000     0.194000000
H    -2.868000000     0.216000000     0.148000000
C    -3.821000000     2.111000000     0.361000000
C    -3.507000000     2.688000000     1.604000000
H    -3.340000000     2.038000000     2.459000000
C    -4.060000000     2.924000000    -0.720000000
H    -4.435000000     2.524000000    -1.659000000
C    -4.031000000     4.368000000    -0.500000000
O    -4.099000000     5.247000000    -1.501000000
C    -3.766000000     4.972000000     0.758000000
H    -3.746000000     6.057000000     0.813000000
C    -3.452000000     4.080000000     1.808000000
O    -3.243000000     4.644000000     3.015000000
C    -3.469000000     3.907000000     4.175000000
C    -2.428000000     3.592000000     4.991000000
H    -1.385000000     3.834000000     4.810000000
C    -4.732000000     3.579000000     4.516000000
H    -5.523000000     3.739000000     3.788000000
C    -5.028000000     2.844000000     5.636000000
H    -6.044000000     2.468000000     5.724000000
C    -3.932000000     2.460000000     6.468000000
H    -4.031000000     1.802000000     7.327000000
C    -2.675000000     2.877000000     6.152000000
O    -1.637000000     2.514000000     6.968000000
C    -0.698000000     1.715000000     6.418000000
C     0.665000000     2.168000000     6.545000000
H     0.900000000     2.964000000     7.248000000
C     1.580000000     1.475000000     5.773000000
O     2.825000000     1.951000000     5.739000000
C     3.870000000     1.458000000     4.947000000
C     3.881000000     1.758000000     3.568000000
H     3.016000000     2.181000000     3.063000000
C     4.876000000     0.665000000     5.450000000
H     4.865000000     0.470000000     6.520000000
C     5.943000000     0.270000000     4.613000000
H     6.780000000    -0.276000000     5.040000000
C     5.969000000     0.649000000     3.282000000
H     6.738000000     0.370000000     2.566000000
C     4.929000000     1.412000000     2.720000000
O     4.969000000     1.728000000     1.382000000
C     4.813000000     0.785000000     0.385000000
C     5.615000000     1.000000000    -0.764000000
H     6.126000000     1.948000000    -0.907000000
C     5.572000000     0.068000000    -1.839000000
O     6.353000000     0.253000000    -2.902000000
C     5.999000000     0.329000000    -4.208000000
C     4.753000000     0.849000000    -4.503000000
H     4.100000000     1.204000000    -3.710000000
C     6.892000000    -0.119000000    -5.170000000
H     7.879000000    -0.461000000    -4.868000000
C     6.363000000    -0.248000000    -6.484000000
H     7.012000000    -0.742000000    -7.203000000
C     5.152000000     0.398000000    -6.836000000
H     4.722000000     0.375000000    -7.834000000
C     4.340000000     0.960000000    -5.907000000
O     3.174000000     1.545000000    -6.301000000
C     2.097000000     1.558000000    -5.467000000
C     1.582000000     2.779000000    -4.987000000
H     2.044000000     3.751000000    -5.138000000
C     0.388000000     2.710000000    -4.294000000
O    -0.137000000     3.862000000    -3.759000000
C    -1.512000000     4.214000000    -3.856000000
C    -2.074000000     4.555000000    -5.079000000
H    -1.555000000     4.340000000    -6.010000000
C    -3.323000000     5.170000000    -5.090000000
H    -3.838000000     5.418000000    -6.014000000
C    -4.053000000     5.392000000    -3.908000000
H    -5.023000000     5.873000000    -3.816000000
C    -3.472000000     4.994000000    -2.695000000
C    -2.195000000     4.408000000    -2.623000000
H    -1.742000000     4.272000000    -1.644000000
C     1.476000000     1.642000000    -0.807000000
H     2.063000000     2.002000000    -1.648000000
C     0.912000000     0.365000000    -0.934000000
H     1.057000000    -0.243000000    -1.824000000
C     0.123000000    -0.122000000     0.069000000
H    -0.162000000    -1.162000000    -0.012000000
C    -0.306000000     0.780000000     1.089000000
H    -1.055000000     0.383000000     1.769000000
C     0.295000000     2.027000000     1.243000000
H     0.058000000     2.714000000     2.051000000
C     1.248000000     2.477000000     0.311000000
C     2.057000000     3.723000000     0.594000000
O     1.971000000     4.286000000     1.676000000
O     2.842000000     4.097000000    -0.190000000
O     1.711000000     8.902000000     3.643000000
H     2.535000000     9.156000000     4.058000000
H     1.976000000     8.366000000     2.894000000
O     5.070000000     5.042000000     1.271000000
H     5.510000000     4.683000000     0.500000000
H     4.142000000     4.859000000     1.123000000
O     0.886000000     7.426000000    -3.876000000
H     0.578000000     7.043000000    -4.698000000
H     1.518000000     6.791000000    -3.538000000
O     4.478000000     4.336000000    -2.388000000
H     5.221000000     4.087000000    -1.839000000
H     3.708000000     4.115000000    -1.863000000
O     6.738000000     3.631000000     3.170000000
H     7.263000000     3.042000000     2.627000000
H     6.089000000     3.996000000     2.569000000
O     1.789000000     5.583000000    -2.034000000
H     0.996000000     5.049000000    -2.025000000
H     2.422000000     5.081000000    -1.520000000
O    -0.526000000     6.265000000     2.685000000
H     0.391000000     6.162000000     2.430000000
H    -0.965000000     5.497000000     2.319000000
O     3.786000000     4.555000000     6.262000000
H     4.060000000     5.222000000     6.892000000
H     4.493000000     3.911000000     6.273000000
O     6.211000000     7.256000000     2.331000000
H     5.671000000     6.756000000     1.719000000
H     7.037000000     6.775000000     2.371000000
O     3.623000000     6.354000000    -4.317000000
H     3.966000000     5.909000000    -3.542000000
H     4.235000000     7.073000000    -4.472000000
O     3.707000000     7.656000000    -0.995000000
H     3.199000000     6.850000000    -1.086000000
H     4.590000000     7.415000000    -1.278000000
O    -2.371000000     8.344000000     2.334000000
H    -1.564000000     7.831000000     2.321000000
H    -2.678000000     8.331000000     1.427000000
O     7.283000000     4.947000000    -0.558000000
H     7.810000000     5.388000000     0.108000000
H     6.801000000     5.653000000    -0.988000000
O     0.600000000     7.117000000     5.381000000
H     1.211000000     6.405000000     5.193000000
H     0.679000000     7.705000000     4.629000000
O     3.060000000    10.268000000     0.576000000
H     3.933000000    10.224000000     0.967000000
H     3.012000000     9.498000000     0.010000000
O     2.345000000     5.438000000     4.060000000
H     2.554000000     4.941000000     4.850000000
H     2.051000000     4.778000000     3.432000000
O     4.427000000     7.303000000     5.072000000
H     3.837000000     6.599000000     4.802000000
H     5.045000000     7.389000000     4.346000000
O     2.462000000     7.228000000     1.521000000
H     2.543000000     6.299000000     1.738000000
H     2.956000000     7.327000000     0.707000000
O     0.168000000     9.628000000     0.442000000
H     1.116000000     9.722000000     0.537000000
H    -0.058000000     8.891000000     1.008000000
