215
-1458.91748
C    -4.827000000    -0.596000000    -1.578000000
H    -4.388000000    -0.350000000    -2.541000000
C    -4.668000000     0.331000000    -0.535000000
C    -5.327000000     0.116000000     0.697000000
H    -5.448000000     0.968000000     1.362000000
C    -3.919000000     1.539000000    -0.727000000
O    -4.046000000     2.164000000    -2.031000000
H    -2.863000000     1.295000000    -0.539000000
O    -4.200000000     2.537000000     0.292000000
C    -3.134000000     3.120000000     0.907000000
C    -2.865000000     2.765000000     2.211000000
H    -3.510000000     2.035000000     2.693000000
C    -1.794000000     3.332000000     2.835000000
O    -1.364000000     2.730000000     3.988000000
C    -0.933000000     4.295000000     2.208000000
C     0.381000000     4.717000000     2.864000000
H     0.699000000     5.702000000     2.516000000
C     1.569000000     3.789000000     2.524000000
C     2.473000000     4.100000000     1.472000000
H     2.357000000     4.954000000     0.810000000
H     0.255000000     4.761000000     3.948000000
C    -1.194000000     4.692000000     0.920000000
H    -0.562000000     5.363000000     0.343000000
C    -2.299000000     4.103000000     0.298000000
C    -2.702000000     4.650000000    -1.097000000
H    -2.433000000     5.698000000    -1.241000000
H    -3.790000000     4.701000000    -1.183000000
C    -2.153000000     3.752000000    -2.267000000
C    -0.890000000     4.060000000    -2.720000000
H    -0.392000000     4.972000000    -2.402000000
C    -2.827000000     2.591000000    -2.617000000
C    -2.241000000     1.792000000    -3.539000000
H    -2.764000000     0.893000000    -3.856000000
C    -0.933000000     2.144000000    -4.016000000
O    -0.274000000     1.219000000    -4.827000000
C     0.712000000     0.346000000    -4.150000000
C     0.615000000    -1.121000000    -4.658000000
C     1.673000000    -2.047000000    -4.415000000
H     2.538000000    -1.718000000    -3.845000000
C    -0.592000000    -1.582000000    -5.061000000
H    -1.449000000    -0.918000000    -4.983000000
O     2.060000000     0.817000000    -4.487000000
H     0.506000000     0.377000000    -3.070000000
C    -0.223000000     3.251000000    -3.634000000
C     1.246000000     3.547000000    -4.043000000
H     1.495000000     4.609000000    -3.990000000
H     1.292000000     3.247000000    -5.092000000
C     2.214000000     2.796000000    -3.179000000
C     2.846000000     3.431000000    -2.114000000
H     2.625000000     4.471000000    -1.892000000
C     2.711000000     1.561000000    -3.542000000
C     3.655000000     0.874000000    -2.757000000
H     3.853000000    -0.145000000    -3.080000000
C     4.149000000     1.430000000    -1.612000000
O     4.895000000     0.618000000    -0.774000000
C     4.170000000     0.160000000     0.466000000
C     4.519000000    -1.311000000     0.657000000
C     4.974000000    -2.128000000    -0.420000000
H     5.142000000    -1.710000000    -1.409000000
C     4.324000000    -1.827000000     1.902000000
H     3.850000000    -1.198000000     2.651000000
O     4.525000000     1.076000000     1.633000000
H     3.091000000     0.282000000     0.285000000
C     3.813000000     2.804000000    -1.346000000
C     4.283000000     3.577000000    -0.114000000
H     4.086000000     4.638000000    -0.277000000
H     5.357000000     3.538000000     0.080000000
C     3.507000000     3.223000000     1.153000000
C     3.620000000     2.022000000     1.870000000
C     2.669000000     1.745000000     2.855000000
H     2.677000000     0.767000000     3.327000000
C     1.728000000     2.651000000     3.249000000
O     0.905000000     2.300000000     4.283000000
C    -0.372000000     1.702000000     3.866000000
H    -0.369000000     1.384000000     2.813000000
C    -0.759000000     0.481000000     4.762000000
C    -2.113000000     0.087000000     4.971000000
H    -2.907000000     0.670000000     4.510000000
C     0.287000000    -0.359000000     5.232000000
H     1.334000000    -0.069000000     5.286000000
C    -0.060000000    -1.501000000     5.890000000
O     0.943000000    -2.299000000     6.514000000
C    -1.391000000    -1.908000000     6.002000000
H    -1.665000000    -2.919000000     6.296000000
C    -2.442000000    -1.124000000     5.597000000
O    -3.751000000    -1.588000000     5.671000000
C    -4.794000000    -0.927000000     5.044000000
C    -5.305000000    -1.480000000     3.867000000
H    -4.796000000    -2.282000000     3.339000000
C    -5.359000000     0.185000000     5.643000000
H    -5.096000000     0.562000000     6.628000000
C    -6.432000000     0.796000000     4.980000000
H    -6.911000000     1.697000000     5.353000000
C    -6.907000000     0.253000000     3.780000000
H    -7.713000000     0.830000000     3.335000000
C    -6.373000000    -0.903000000     3.230000000
O    -6.693000000    -1.350000000     1.978000000
C    -5.958000000    -1.081000000     0.907000000
C    -5.966000000    -2.026000000    -0.151000000
H    -6.521000000    -2.936000000     0.065000000
C    -5.397000000    -1.848000000    -1.402000000
O    -5.561000000    -2.743000000    -2.404000000
C    -4.990000000    -2.525000000    -3.656000000
C    -3.697000000    -3.073000000    -4.038000000
H    -3.220000000    -3.795000000    -3.381000000
C    -5.573000000    -1.611000000    -4.500000000
H    -6.431000000    -1.012000000    -4.205000000
C    -5.060000000    -1.398000000    -5.774000000
H    -5.522000000    -0.620000000    -6.377000000
C    -3.865000000    -1.948000000    -6.160000000
H    -3.418000000    -1.561000000    -7.072000000
C    -3.222000000    -2.724000000    -5.247000000
O    -1.996000000    -3.316000000    -5.737000000
C    -0.791000000    -2.872000000    -5.456000000
C     0.246000000    -3.804000000    -5.319000000
H     0.012000000    -4.854000000    -5.477000000
C     1.476000000    -3.391000000    -4.797000000
O     2.391000000    -4.295000000    -4.653000000
C     3.684000000    -4.106000000    -4.263000000
C     4.085000000    -4.366000000    -2.932000000
H     3.421000000    -4.765000000    -2.170000000
C     4.547000000    -3.632000000    -5.245000000
H     4.170000000    -3.421000000    -6.242000000
C     5.848000000    -3.304000000    -4.859000000
H     6.575000000    -2.935000000    -5.578000000
C     6.267000000    -3.527000000    -3.525000000
H     7.291000000    -3.279000000    -3.258000000
C     5.376000000    -4.022000000    -2.599000000
O     5.673000000    -4.258000000    -1.275000000
C     5.233000000    -3.472000000    -0.215000000
C     4.948000000    -4.024000000     1.035000000
H     5.133000000    -5.074000000     1.246000000
C     4.518000000    -3.201000000     2.108000000
O     4.286000000    -3.771000000     3.354000000
C     4.004000000    -3.101000000     4.503000000
C     5.045000000    -2.782000000     5.413000000
H     6.084000000    -2.898000000     5.115000000
C     4.668000000    -2.103000000     6.601000000
H     5.432000000    -1.862000000     7.336000000
C     3.363000000    -1.976000000     6.947000000
H     3.078000000    -1.492000000     7.878000000
C     2.278000000    -2.438000000     6.145000000
C     2.677000000    -2.884000000     4.863000000
H     1.899000000    -3.159000000     4.155000000
C     0.007000000    -2.380000000    -1.449000000
H     0.548000000    -3.178000000    -1.951000000
C     0.604000000    -1.113000000    -1.176000000
H     1.649000000    -0.928000000    -1.408000000
C    -0.044000000    -0.210000000    -0.347000000
H     0.532000000     0.721000000    -0.094000000
C    -1.339000000    -0.498000000     0.189000000
H    -1.768000000     0.177000000     0.925000000
C    -1.970000000    -1.687000000    -0.202000000
H    -2.850000000    -1.968000000     0.370000000
C    -1.255000000    -2.622000000    -1.010000000
C    -1.856000000    -3.988000000    -1.185000000
O    -3.027000000    -4.104000000    -0.949000000
O    -1.172000000    -4.937000000    -1.569000000
O    -6.494000000    -5.604000000    -4.026000000
H    -5.736000000    -5.688000000    -3.448000000
H    -7.238000000    -5.499000000    -3.433000000
O     1.365000000    -7.432000000    -3.143000000
H     1.510000000    -6.984000000    -2.309000000
H     0.439000000    -7.285000000    -3.335000000
O     1.036000000    -9.211000000     0.430000000
H     1.202000000    -8.713000000     1.230000000
H     0.599000000    -8.589000000    -0.153000000
O    -4.484000000    -5.970000000    -1.904000000
H    -3.694000000    -6.459000000    -2.135000000
H    -4.159000000    -5.170000000    -1.490000000
O    -2.111000000    -5.387000000     5.505000000
H    -3.021000000    -5.158000000     5.695000000
H    -1.918000000    -4.935000000     4.683000000
O    -3.126000000    -7.135000000    -5.247000000
H    -3.969000000    -7.040000000    -4.805000000
H    -3.333000000    -7.056000000    -6.178000000
O    -6.898000000    -5.484000000     0.277000000
H    -7.491000000    -5.254000000    -0.438000000
H    -6.645000000    -6.390000000     0.097000000
O    -0.905000000    -6.488000000    -3.791000000
H    -1.145000000    -5.865000000    -3.105000000
H    -1.707000000    -6.604000000    -4.301000000
O    -1.809000000    -7.433000000    -0.143000000
H    -2.044000000    -7.226000000     0.761000000
H    -1.504000000    -6.603000000    -0.508000000
O     0.690000000    -4.935000000     1.876000000
H     0.772000000    -3.982000000     1.881000000
H    -0.215000000    -5.100000000     2.139000000
O     0.116000000    -8.013000000    -6.253000000
H    -0.390000000    -8.739000000    -6.617000000
H    -0.195000000    -7.931000000    -5.352000000
O     1.006000000    -7.586000000     2.955000000
H     1.241000000    -7.648000000     3.881000000
H     0.966000000    -6.645000000     2.781000000
O     0.913000000    -6.164000000    -0.654000000
H     0.229000000    -5.607000000    -1.026000000
H     0.964000000    -5.900000000     0.265000000
O    -4.612000000    -4.514000000     1.229000000
H    -4.045000000    -4.499000000     0.458000000
H    -5.469000000    -4.772000000     0.891000000
O    -6.089000000    -8.146000000    -0.671000000
H    -5.838000000    -8.313000000    -1.579000000
H    -5.286000000    -8.289000000    -0.170000000
O    -2.027000000    -7.450000000     2.666000000
H    -1.333000000    -7.982000000     3.054000000
H    -2.834000000    -7.792000000     3.050000000
O    -2.390000000    -8.582000000    -2.528000000
H    -1.845000000    -7.874000000    -2.871000000
H    -2.404000000    -8.436000000    -1.582000000
O    -1.952000000    -4.700000000     2.769000000
H    -1.940000000    -5.649000000     2.640000000
H    -2.866000000    -4.451000000     2.632000000
O     0.328000000    -2.245000000     2.068000000
H    -0.237000000    -1.530000000     2.361000000
H     0.029000000    -2.438000000     1.179000000
