215
-1435.13157
C     2.241000000    -0.967000000     4.635000000
H     2.921000000    -1.417000000     3.916000000
C     1.008000000    -1.490000000     4.850000000
C     0.078000000    -0.857000000     5.714000000
H    -0.964000000    -1.164000000     5.723000000
C     0.470000000    -2.434000000     3.837000000
O     1.350000000    -3.522000000     3.406000000
H     0.193000000    -1.828000000     2.961000000
O    -0.806000000    -3.037000000     4.261000000
C    -1.842000000    -3.089000000     3.308000000
C    -2.721000000    -1.950000000     3.248000000
H    -2.681000000    -1.198000000     4.033000000
C    -3.707000000    -1.854000000     2.236000000
O    -4.445000000    -0.725000000     2.078000000
C    -3.645000000    -2.830000000     1.210000000
C    -4.663000000    -2.852000000     0.089000000
H    -4.983000000    -3.874000000    -0.122000000
C    -4.079000000    -2.088000000    -1.090000000
C    -3.559000000    -2.695000000    -2.233000000
H    -3.401000000    -3.767000000    -2.323000000
H    -5.658000000    -2.462000000     0.312000000
C    -2.796000000    -3.889000000     1.322000000
H    -2.780000000    -4.608000000     0.506000000
C    -1.872000000    -4.077000000     2.345000000
C    -0.800000000    -5.077000000     2.174000000
H    -1.213000000    -5.973000000     1.705000000
H    -0.565000000    -5.502000000     3.152000000
C     0.403000000    -4.496000000     1.421000000
C     0.577000000    -4.894000000     0.127000000
H    -0.166000000    -5.562000000    -0.301000000
C     1.466000000    -3.884000000     2.073000000
C     2.590000000    -3.503000000     1.401000000
H     3.340000000    -2.850000000     1.840000000
C     2.724000000    -3.786000000     0.040000000
O     3.794000000    -3.083000000    -0.563000000
C     3.376000000    -1.974000000    -1.416000000
C     4.444000000    -0.827000000    -1.414000000
C     4.764000000    -0.070000000    -2.516000000
H     4.241000000    -0.336000000    -3.432000000
C     5.065000000    -0.515000000    -0.206000000
H     4.811000000    -1.071000000     0.692000000
O     3.188000000    -2.480000000    -2.683000000
H     2.366000000    -1.636000000    -1.140000000
C     1.723000000    -4.550000000    -0.593000000
C     1.697000000    -4.909000000    -2.025000000
H     1.096000000    -5.817000000    -2.111000000
H     2.747000000    -5.143000000    -2.214000000
C     1.073000000    -3.780000000    -2.814000000
C    -0.294000000    -3.680000000    -3.212000000
H    -0.879000000    -4.554000000    -2.939000000
C     1.871000000    -2.645000000    -3.130000000
C     1.378000000    -1.625000000    -3.918000000
H     1.982000000    -0.741000000    -4.106000000
C     0.066000000    -1.585000000    -4.309000000
O    -0.367000000    -0.395000000    -4.916000000
C    -1.063000000     0.589000000    -4.090000000
C    -0.655000000     1.999000000    -4.378000000
C     0.644000000     2.335000000    -4.812000000
H     1.318000000     1.570000000    -5.191000000
C    -1.569000000     3.025000000    -3.965000000
H    -2.523000000     2.882000000    -3.464000000
O    -2.491000000     0.392000000    -4.145000000
H    -0.774000000     0.402000000    -3.045000000
C    -0.765000000    -2.646000000    -3.993000000
C    -2.199000000    -2.571000000    -4.410000000
H    -2.561000000    -3.547000000    -4.740000000
H    -2.240000000    -1.898000000    -5.269000000
C    -2.960000000    -1.933000000    -3.259000000
C    -3.085000000    -0.510000000    -3.235000000
C    -3.745000000     0.098000000    -2.140000000
H    -3.875000000     1.177000000    -2.184000000
C    -4.192000000    -0.677000000    -1.105000000
O    -4.809000000    -0.109000000    -0.063000000
C    -3.979000000     0.081000000     1.097000000
H    -2.933000000    -0.222000000     0.942000000
C    -4.031000000     1.581000000     1.502000000
C    -3.506000000     1.904000000     2.747000000
H    -3.147000000     1.135000000     3.425000000
C    -4.585000000     2.617000000     0.726000000
H    -5.111000000     2.404000000    -0.201000000
C    -4.364000000     3.956000000     1.058000000
O    -4.806000000     4.926000000     0.160000000
C    -3.804000000     4.210000000     2.330000000
H    -3.731000000     5.254000000     2.623000000
C    -3.506000000     3.191000000     3.219000000
O    -3.014000000     3.557000000     4.493000000
C    -2.871000000     2.585000000     5.503000000
C    -1.570000000     2.255000000     5.971000000
H    -0.652000000     2.652000000     5.545000000
C    -4.020000000     1.929000000     5.898000000
H    -4.942000000     2.268000000     5.432000000
C    -3.919000000     1.077000000     6.997000000
H    -4.812000000     0.600000000     7.393000000
C    -2.711000000     0.772000000     7.555000000
H    -2.627000000     0.006000000     8.322000000
C    -1.560000000     1.256000000     6.978000000
O    -0.393000000     0.788000000     7.443000000
C     0.535000000     0.156000000     6.630000000
C     1.757000000     0.688000000     6.373000000
H     2.187000000     1.517000000     6.930000000
C     2.564000000     0.206000000     5.335000000
O     3.808000000     0.761000000     5.104000000
C     4.882000000     0.226000000     4.360000000
C     5.295000000     0.784000000     3.111000000
H     4.692000000     1.549000000     2.627000000
C     5.437000000    -0.976000000     4.783000000
H     5.219000000    -1.347000000     5.782000000
C     6.446000000    -1.590000000     4.026000000
H     6.696000000    -2.583000000     4.390000000
C     7.009000000    -0.941000000     2.924000000
H     7.683000000    -1.538000000     2.315000000
C     6.359000000     0.190000000     2.378000000
O     6.703000000     0.752000000     1.127000000
C     5.987000000     0.543000000    -0.079000000
C     6.408000000     1.111000000    -1.254000000
H     7.227000000     1.827000000    -1.246000000
C     5.730000000     0.947000000    -2.457000000
O     6.179000000     1.573000000    -3.602000000
C     5.368000000     2.045000000    -4.629000000
C     4.260000000     2.865000000    -4.268000000
H     4.005000000     3.145000000    -3.249000000
C     5.538000000     1.656000000    -5.945000000
H     6.438000000     1.095000000    -6.185000000
C     4.629000000     1.978000000    -6.896000000
H     4.755000000     1.630000000    -7.918000000
C     3.539000000     2.725000000    -6.564000000
H     2.824000000     3.000000000    -7.335000000
C     3.338000000     3.250000000    -5.316000000
O     2.345000000     4.057000000    -5.053000000
C     1.040000000     3.650000000    -4.733000000
C     0.120000000     4.633000000    -4.452000000
H     0.386000000     5.687000000    -4.452000000
C    -1.145000000     4.321000000    -4.012000000
O    -1.970000000     5.451000000    -3.713000000
C    -3.196000000     5.239000000    -3.110000000
C    -4.277000000     5.015000000    -3.985000000
H    -4.203000000     5.146000000    -5.061000000
C    -5.584000000     4.828000000    -3.435000000
H    -6.453000000     4.785000000    -4.086000000
C    -5.643000000     4.707000000    -2.060000000
H    -6.657000000     4.576000000    -1.691000000
C    -4.578000000     4.863000000    -1.190000000
C    -3.281000000     5.028000000    -1.737000000
H    -2.402000000     5.074000000    -1.099000000
C     2.331000000     1.804000000    -0.841000000
H     2.710000000     2.188000000    -1.785000000
C     1.226000000     0.957000000    -0.783000000
H     0.792000000     0.517000000    -1.677000000
C     0.645000000     0.626000000     0.386000000
H    -0.101000000    -0.243000000     0.381000000
C     1.230000000     1.134000000     1.565000000
H     0.870000000     0.748000000     2.516000000
C     2.276000000     2.029000000     1.549000000
H     2.696000000     2.461000000     2.453000000
C     2.794000000     2.453000000     0.285000000
C     3.773000000     3.605000000     0.202000000
O     4.402000000     3.833000000     1.196000000
O     3.986000000     4.237000000    -0.829000000
O     3.877000000     5.463000000     3.519000000
H     4.383000000     6.062000000     2.971000000
H     3.573000000     4.784000000     2.916000000
O     6.133000000     9.036000000    -1.300000000
H     5.765000000     8.189000000    -1.046000000
H     6.085000000     9.566000000    -0.505000000
O     6.538000000     4.314000000    -1.943000000
H     5.850000000     4.154000000    -1.298000000
H     6.268000000     5.118000000    -2.387000000
O     7.177000000     4.166000000     2.230000000
H     6.245000000     4.181000000     2.011000000
H     7.203000000     4.306000000     3.176000000
O     3.253000000     5.892000000    -2.940000000
H     3.014000000     5.232000000    -3.590000000
H     3.501000000     5.387000000    -2.165000000
O     0.283000000     6.882000000     4.794000000
H    -0.432000000     7.478000000     4.572000000
H     0.185000000     6.153000000     4.182000000
O     5.397000000     6.664000000    -0.439000000
H     4.914000000     5.838000000    -0.460000000
H     5.616000000     6.790000000     0.485000000
O     1.406000000     3.848000000     4.635000000
H     1.457000000     3.391000000     5.475000000
H     2.190000000     4.397000000     4.613000000
O     8.230000000     5.520000000     0.131000000
H     7.680000000     5.225000000    -0.594000000
H     7.756000000     5.248000000     0.917000000
O     7.651000000     3.631000000     5.095000000
H     8.351000000     3.507000000     5.736000000
H     7.571000000     2.783000000     4.660000000
O     4.144000000     8.182000000    -4.294000000
H     3.961000000     7.563000000    -3.587000000
H     4.326000000     7.630000000    -5.054000000
O     5.615000000     7.388000000     2.146000000
H     5.152000000     8.225000000     2.189000000
H     6.264000000     7.436000000     2.847000000
O     9.109000000     2.393000000     1.351000000
H     8.642000000     3.113000000     1.776000000
H     8.741000000     1.603000000     1.747000000
O     1.625000000     8.268000000    -1.892000000
H     0.916000000     8.131000000    -2.521000000
H     2.265000000     7.587000000    -2.100000000
O     8.380000000     3.427000000    -4.176000000
H     7.939000000     3.843000000    -3.435000000
H     8.068000000     2.522000000    -4.163000000
O    -0.314000000     5.102000000     2.641000000
H     0.265000000     4.694000000     3.285000000
H    -1.078000000     4.526000000     2.607000000
O     5.791000000     5.789000000     5.707000000
H     6.015000000     4.863000000     5.608000000
H     5.137000000     5.951000000     5.027000000
O     8.293000000     8.442000000     0.146000000
H     7.490000000     8.586000000    -0.355000000
H     8.301000000     7.501000000     0.321000000
O    -0.504000000     7.277000000     1.045000000
H     0.337000000     7.461000000     0.626000000
H    -0.335000000     6.514000000     1.597000000
