215
-1431.47205
C     1.596000000    -0.128000000     5.148000000
H     2.246000000    -0.775000000     4.564000000
C     0.177000000    -0.333000000     4.999000000
C    -0.698000000     0.599000000     5.558000000
H    -1.755000000     0.551000000     5.312000000
C    -0.499000000    -1.384000000     4.125000000
O     0.274000000    -2.594000000     4.378000000
H    -0.512000000    -0.961000000     3.110000000
O    -1.896000000    -1.696000000     4.446000000
C    -2.681000000    -2.039000000     3.384000000
C    -3.473000000    -1.028000000     2.896000000
H    -3.582000000    -0.060000000     3.378000000
C    -4.346000000    -1.247000000     1.835000000
O    -5.043000000    -0.210000000     1.339000000
C    -4.228000000    -2.460000000     1.134000000
C    -4.965000000    -2.645000000    -0.155000000
H    -5.090000000    -3.712000000    -0.347000000
C    -4.159000000    -2.169000000    -1.376000000
C    -3.463000000    -3.063000000    -2.196000000
H    -3.532000000    -4.102000000    -1.884000000
H    -6.002000000    -2.304000000    -0.191000000
C    -3.315000000    -3.427000000     1.560000000
H    -3.065000000    -4.294000000     0.953000000
C    -2.617000000    -3.285000000     2.748000000
C    -1.695000000    -4.393000000     3.292000000
H    -2.120000000    -5.357000000     3.006000000
H    -1.444000000    -4.457000000     4.353000000
C    -0.336000000    -4.153000000     2.672000000
C    -0.001000000    -4.801000000     1.443000000
H    -0.678000000    -5.562000000     1.064000000
C     0.632000000    -3.240000000     3.204000000
C     1.756000000    -2.889000000     2.453000000
H     2.374000000    -2.049000000     2.758000000
C     2.063000000    -3.503000000     1.278000000
O     3.183000000    -2.968000000     0.595000000
C     3.140000000    -2.209000000    -0.672000000
C     4.146000000    -1.126000000    -0.624000000
C     4.876000000    -0.759000000    -1.734000000
H     4.862000000    -1.293000000    -2.681000000
C     4.153000000    -0.270000000     0.467000000
H     3.558000000    -0.505000000     1.346000000
O     3.273000000    -3.068000000    -1.853000000
H     2.192000000    -1.651000000    -0.676000000
C     1.169000000    -4.423000000     0.754000000
C     1.530000000    -5.147000000    -0.547000000
H     0.943000000    -6.066000000    -0.486000000
H     2.581000000    -5.442000000    -0.552000000
C     1.160000000    -4.372000000    -1.786000000
C    -0.141000000    -4.528000000    -2.352000000
H    -0.867000000    -5.242000000    -1.972000000
C     2.076000000    -3.519000000    -2.442000000
C     1.749000000    -2.742000000    -3.570000000
H     2.523000000    -2.145000000    -4.046000000
C     0.486000000    -2.877000000    -4.127000000
O     0.113000000    -1.879000000    -5.045000000
C    -0.472000000    -0.708000000    -4.461000000
C     0.245000000     0.617000000    -4.829000000
C     1.499000000     0.685000000    -5.419000000
H     2.052000000    -0.202000000    -5.718000000
C    -0.318000000     1.832000000    -4.493000000
H    -1.313000000     1.740000000    -4.066000000
O    -1.852000000    -0.811000000    -4.631000000
H    -0.375000000    -0.729000000    -3.366000000
C    -0.490000000    -3.707000000    -3.474000000
C    -1.935000000    -3.650000000    -4.066000000
H    -2.377000000    -4.638000000    -3.919000000
H    -1.948000000    -3.386000000    -5.126000000
C    -2.674000000    -2.635000000    -3.270000000
C    -2.603000000    -1.285000000    -3.560000000
C    -3.354000000    -0.386000000    -2.798000000
H    -3.408000000     0.637000000    -3.160000000
C    -4.131000000    -0.846000000    -1.724000000
O    -4.857000000     0.078000000    -1.028000000
C    -4.397000000     0.509000000     0.254000000
H    -3.349000000     0.177000000     0.235000000
C    -4.319000000     1.970000000     0.554000000
C    -3.996000000     2.455000000     1.840000000
H    -4.015000000     1.814000000     2.718000000
C    -4.221000000     2.863000000    -0.501000000
H    -4.422000000     2.535000000    -1.518000000
C    -3.953000000     4.221000000    -0.261000000
O    -3.943000000     5.141000000    -1.288000000
C    -3.730000000     4.702000000     1.004000000
H    -3.650000000     5.777000000     1.149000000
C    -3.819000000     3.843000000     2.102000000
O    -3.721000000     4.414000000     3.359000000
C    -3.667000000     3.773000000     4.596000000
C    -2.418000000     3.455000000     5.193000000
H    -1.487000000     3.568000000     4.643000000
C    -4.854000000     3.428000000     5.352000000
H    -5.808000000     3.715000000     4.915000000
C    -4.745000000     2.687000000     6.544000000
H    -5.615000000     2.412000000     7.136000000
C    -3.501000000     2.440000000     7.120000000
H    -3.446000000     1.900000000     8.061000000
C    -2.341000000     2.849000000     6.433000000
O    -1.111000000     2.542000000     6.937000000
C    -0.217000000     1.593000000     6.326000000
C     1.112000000     1.658000000     6.627000000
H     1.511000000     2.378000000     7.337000000
C     2.049000000     0.875000000     5.994000000
O     3.383000000     1.085000000     6.228000000
C     4.348000000     0.908000000     5.255000000
C     4.204000000     1.429000000     4.027000000
H     3.491000000     2.213000000     3.783000000
C     5.354000000    -0.111000000     5.553000000
H     5.426000000    -0.591000000     6.526000000
C     6.216000000    -0.442000000     4.499000000
H     6.849000000    -1.319000000     4.601000000
C     6.059000000     0.118000000     3.268000000
H     6.721000000    -0.130000000     2.442000000
C     5.110000000     1.081000000     2.969000000
O     5.021000000     1.622000000     1.686000000
C     4.952000000     0.885000000     0.511000000
C     5.697000000     1.233000000    -0.640000000
H     6.328000000     2.118000000    -0.667000000
C     5.685000000     0.343000000    -1.710000000
O     6.392000000     0.598000000    -2.888000000
C     5.953000000     0.615000000    -4.136000000
C     4.924000000     1.489000000    -4.554000000
H     4.387000000     2.099000000    -3.833000000
C     6.653000000    -0.122000000    -5.049000000
H     7.444000000    -0.814000000    -4.772000000
C     6.323000000    -0.099000000    -6.390000000
H     6.911000000    -0.611000000    -7.147000000
C     5.189000000     0.610000000    -6.752000000
H     4.848000000     0.575000000    -7.783000000
C     4.453000000     1.361000000    -5.850000000
O     3.344000000     2.073000000    -6.295000000
C     2.178000000     1.897000000    -5.618000000
C     1.539000000     3.053000000    -5.250000000
H     2.088000000     3.978000000    -5.407000000
C     0.339000000     3.050000000    -4.662000000
O    -0.145000000     4.120000000    -4.004000000
C    -1.488000000     4.408000000    -3.910000000
C    -2.330000000     4.641000000    -5.009000000
H    -1.969000000     4.502000000    -6.025000000
C    -3.662000000     5.050000000    -4.920000000
H    -4.189000000     5.233000000    -5.853000000
C    -4.140000000     5.304000000    -3.633000000
H    -5.177000000     5.591000000    -3.478000000
C    -3.384000000     4.920000000    -2.530000000
C    -2.062000000     4.632000000    -2.698000000
H    -1.443000000     4.452000000    -1.824000000
C     0.872000000     2.663000000    -0.829000000
H     1.511000000     3.096000000    -1.595000000
C     0.667000000     1.288000000    -0.846000000
H     1.011000000     0.740000000    -1.719000000
C    -0.024000000     0.555000000     0.140000000
H    -0.188000000    -0.484000000     0.044000000
C    -0.552000000     1.341000000     1.193000000
H    -1.069000000     0.754000000     1.948000000
C    -0.415000000     2.768000000     1.203000000
H    -1.054000000     3.312000000     1.893000000
C     0.282000000     3.429000000     0.197000000
C     0.537000000     4.920000000     0.202000000
O     0.461000000     5.507000000     1.227000000
O     1.067000000     5.479000000    -0.714000000
O     2.101000000    10.549000000     1.335000000
H     2.944000000    10.290000000     1.707000000
H     1.906000000    11.390000000     1.748000000
O     4.642000000     4.471000000     1.830000000
H     5.160000000     4.579000000     1.032000000
H     4.584000000     3.524000000     1.951000000
O     3.599000000     8.269000000    -2.492000000
H     4.271000000     7.983000000    -1.874000000
H     3.879000000     9.144000000    -2.761000000
O     0.597000000     7.224000000    -5.422000000
H     1.362000000     7.191000000    -5.996000000
H     0.913000000     6.890000000    -4.582000000
O    -1.452000000     7.421000000    -1.981000000
H    -0.751000000     7.769000000    -1.429000000
H    -1.113000000     6.583000000    -2.297000000
O     1.733000000     6.460000000    -3.231000000
H     2.313000000     7.155000000    -2.919000000
H     1.480000000     5.985000000    -2.439000000
O     0.647000000     8.251000000    -0.162000000
H     1.017000000     7.399000000    -0.396000000
H     0.847000000     8.350000000     0.769000000
O    -1.709000000     6.689000000     2.948000000
H    -1.116000000     6.376000000     2.265000000
H    -2.478000000     6.124000000     2.874000000
O     2.788000000     7.400000000     4.864000000
H     1.953000000     7.031000000     4.577000000
H     3.449000000     6.902000000     4.383000000
O     5.118000000     5.508000000     4.143000000
H     5.015000000     5.145000000     3.263000000
H     5.866000000     5.038000000     4.510000000
O     4.379000000     5.380000000    -3.950000000
H     3.574000000     5.242000000    -3.451000000
H     4.298000000     6.269000000    -4.295000000
O    -3.783000000     8.536000000    -0.658000000
H    -3.460000000     9.436000000    -0.703000000
H    -3.135000000     8.024000000    -1.142000000
O    -1.203000000     6.454000000     5.674000000
H    -0.468000000     5.863000000     5.511000000
H    -1.597000000     6.589000000     4.812000000
O     1.413000000    10.823000000    -1.249000000
H     1.066000000     9.954000000    -1.450000000
H     1.761000000    10.742000000    -0.361000000
O     0.567000000     5.100000000     4.052000000
H     1.191000000     4.555000000     4.532000000
H     0.738000000     4.906000000     3.131000000
O     2.908000000     4.404000000     5.477000000
H     3.263000000     3.814000000     6.142000000
H     3.659000000     4.926000000     5.195000000
O     2.832000000     6.597000000     2.045000000
H     3.403000000     5.849000000     2.218000000
H     1.982000000     6.208000000     1.837000000
O     4.505000000     8.981000000     0.756000000
H     4.205000000     8.267000000     1.318000000
H     3.907000000     8.966000000     0.009000000
O    -0.255000000     8.971000000     2.985000000
H    -0.217000000     9.058000000     2.033000000
H    -0.710000000     8.141000000     3.132000000
