215
-1452.48540
C     2.139000000    -1.092000000     4.967000000
H     2.671000000    -1.972000000     4.613000000
C     0.773000000    -1.103000000     4.785000000
C     0.106000000     0.069000000     5.144000000
H    -0.962000000     0.180000000     4.969000000
C     0.081000000    -2.133000000     3.844000000
O     0.828000000    -3.407000000     3.758000000
H     0.043000000    -1.632000000     2.865000000
O    -1.258000000    -2.459000000     4.241000000
C    -2.314000000    -2.662000000     3.330000000
C    -3.181000000    -1.605000000     3.117000000
H    -3.269000000    -0.877000000     3.919000000
C    -4.056000000    -1.647000000     2.094000000
O    -4.752000000    -0.545000000     1.885000000
C    -4.106000000    -2.717000000     1.263000000
C    -5.039000000    -2.687000000     0.063000000
H    -5.236000000    -3.697000000    -0.303000000
C    -4.370000000    -1.953000000    -1.074000000
C    -3.659000000    -2.713000000    -2.016000000
H    -3.677000000    -3.799000000    -1.978000000
H    -5.986000000    -2.210000000     0.326000000
C    -3.301000000    -3.836000000     1.517000000
H    -3.226000000    -4.579000000     0.727000000
C    -2.385000000    -3.821000000     2.567000000
C    -1.345000000    -4.938000000     2.635000000
H    -1.857000000    -5.861000000     2.354000000
H    -1.156000000    -5.169000000     3.686000000
C    -0.023000000    -4.592000000     1.884000000
C     0.219000000    -5.027000000     0.587000000
H    -0.532000000    -5.660000000     0.120000000
C     1.013000000    -3.844000000     2.485000000
C     2.169000000    -3.452000000     1.715000000
H     2.851000000    -2.799000000     2.254000000
C     2.383000000    -3.855000000     0.442000000
O     3.439000000    -3.328000000    -0.214000000
C     3.266000000    -2.259000000    -1.190000000
C     4.348000000    -1.166000000    -1.228000000
C     4.592000000    -0.490000000    -2.429000000
H     4.218000000    -0.970000000    -3.329000000
C     4.619000000    -0.522000000    -0.015000000
H     4.305000000    -0.972000000     0.923000000
O     3.091000000    -2.757000000    -2.566000000
H     2.310000000    -1.841000000    -0.839000000
C     1.391000000    -4.639000000    -0.125000000
C     1.468000000    -5.131000000    -1.595000000
H     0.877000000    -6.040000000    -1.725000000
H     2.503000000    -5.263000000    -1.918000000
C     0.940000000    -3.986000000    -2.551000000
C    -0.381000000    -4.017000000    -3.014000000
H    -0.927000000    -4.935000000    -2.811000000
C     1.788000000    -2.931000000    -2.939000000
C     1.329000000    -2.012000000    -3.776000000
H     1.922000000    -1.151000000    -4.071000000
C     0.006000000    -2.047000000    -4.262000000
O    -0.385000000    -0.968000000    -5.039000000
C    -1.001000000     0.023000000    -4.228000000
C    -0.466000000     1.420000000    -4.668000000
C     0.663000000     1.589000000    -5.526000000
H     0.962000000     0.652000000    -5.991000000
C    -0.994000000     2.546000000    -4.091000000
H    -1.789000000     2.457000000    -3.354000000
O    -2.477000000     0.018000000    -4.225000000
H    -0.545000000    -0.118000000    -3.237000000
C    -0.856000000    -3.017000000    -3.836000000
C    -2.365000000    -2.962000000    -4.180000000
H    -2.801000000    -3.964000000    -4.163000000
H    -2.564000000    -2.508000000    -5.152000000
C    -3.038000000    -2.129000000    -3.106000000
C    -3.084000000    -0.710000000    -3.274000000
C    -3.669000000     0.049000000    -2.322000000
H    -3.504000000     1.119000000    -2.221000000
C    -4.369000000    -0.525000000    -1.220000000
O    -4.909000000     0.308000000    -0.277000000
C    -4.157000000     0.421000000     0.994000000
H    -3.123000000     0.126000000     0.762000000
C    -4.087000000     1.815000000     1.532000000
C    -4.170000000     2.160000000     2.899000000
H    -4.315000000     1.448000000     3.707000000
C    -4.001000000     2.882000000     0.566000000
H    -3.881000000     2.638000000    -0.487000000
C    -3.947000000     4.216000000     1.014000000
O    -3.624000000     5.226000000     0.185000000
C    -4.064000000     4.539000000     2.326000000
H    -4.172000000     5.569000000     2.658000000
C    -4.179000000     3.544000000     3.277000000
O    -4.292000000     3.905000000     4.626000000
C    -3.478000000     3.195000000     5.565000000
C    -2.056000000     3.002000000     5.314000000
H    -1.604000000     3.309000000     4.375000000
C    -3.931000000     3.031000000     6.868000000
H    -4.940000000     3.275000000     7.191000000
C    -3.132000000     2.447000000     7.816000000
H    -3.546000000     2.340000000     8.815000000
C    -1.807000000     2.029000000     7.557000000
H    -1.116000000     1.752000000     8.349000000
C    -1.254000000     2.337000000     6.306000000
O     0.089000000     2.257000000     6.076000000
C     0.732000000     1.120000000     5.800000000
C     2.077000000     1.069000000     6.002000000
H     2.684000000     1.909000000     6.330000000
C     2.757000000    -0.056000000     5.545000000
O     4.116000000    -0.007000000     5.588000000
C     4.940000000    -0.156000000     4.539000000
C     4.790000000     0.563000000     3.339000000
H     3.818000000     1.018000000     3.165000000
C     6.179000000    -0.766000000     4.739000000
H     6.334000000    -1.221000000     5.714000000
C     7.263000000    -0.574000000     3.830000000
H     8.269000000    -0.898000000     4.083000000
C     7.037000000     0.091000000     2.631000000
H     7.797000000     0.306000000     1.884000000
C     5.764000000     0.665000000     2.367000000
O     5.384000000     1.399000000     1.213000000
C     5.189000000     0.739000000     0.030000000
C     5.667000000     1.261000000    -1.147000000
H     6.256000000     2.174000000    -1.102000000
C     5.410000000     0.686000000    -2.340000000
O     5.786000000     1.231000000    -3.543000000
C     5.073000000     1.106000000    -4.715000000
C     3.916000000     1.886000000    -4.844000000
H     3.476000000     2.382000000    -3.983000000
C     5.691000000     0.470000000    -5.806000000
H     6.690000000     0.045000000    -5.748000000
C     5.155000000     0.618000000    -7.063000000
H     5.618000000     0.245000000    -7.973000000
C     3.958000000     1.327000000    -7.211000000
H     3.335000000     1.443000000    -8.095000000
C     3.451000000     2.026000000    -6.171000000
O     2.451000000     2.982000000    -6.419000000
C     1.254000000     2.867000000    -5.707000000
C     0.721000000     4.001000000    -5.098000000
H     1.080000000     5.002000000    -5.322000000
C    -0.426000000     3.829000000    -4.355000000
O    -1.094000000     4.939000000    -3.828000000
C    -2.282000000     4.855000000    -3.228000000
C    -3.437000000     4.745000000    -4.041000000
H    -3.341000000     4.850000000    -5.118000000
C    -4.690000000     4.666000000    -3.363000000
H    -5.574000000     4.528000000    -3.981000000
C    -4.753000000     4.706000000    -1.990000000
H    -5.755000000     4.781000000    -1.576000000
C    -3.607000000     4.925000000    -1.198000000
C    -2.396000000     4.982000000    -1.866000000
H    -1.466000000     5.061000000    -1.309000000
C     1.982000000     1.721000000    -0.819000000
H     2.546000000     2.070000000    -1.680000000
C     1.051000000     0.676000000    -0.986000000
H     1.035000000     0.186000000    -1.957000000
C     0.365000000     0.213000000     0.093000000
H    -0.301000000    -0.641000000    -0.054000000
C     0.453000000     0.889000000     1.343000000
H    -0.158000000     0.434000000     2.118000000
C     1.300000000     1.946000000     1.531000000
H     1.447000000     2.377000000     2.518000000
C     2.045000000     2.367000000     0.427000000
C     3.000000000     3.510000000     0.568000000
O     3.202000000     3.895000000     1.703000000
O     3.395000000     4.079000000    -0.412000000
O     5.050000000     3.767000000     3.591000000
H     4.713000000     3.064000000     4.147000000
H     4.504000000     3.734000000     2.806000000
O     5.544000000     4.371000000    -2.085000000
H     4.964000000     4.210000000    -1.340000000
H     4.976000000     4.296000000    -2.852000000
O     7.398000000     4.008000000     1.744000000
H     8.126000000     3.459000000     2.035000000
H     6.646000000     3.696000000     2.247000000
O     1.244000000     4.591000000    -1.977000000
H     0.585000000     3.956000000    -1.698000000
H     2.011000000     4.392000000    -1.440000000
O     6.474000000     4.006000000     5.939000000
H     6.194000000     4.300000000     5.072000000
H     6.948000000     3.191000000     5.774000000
O    -0.720000000     6.168000000     4.892000000
H    -0.618000000     6.943000000     4.340000000
H    -0.312000000     5.461000000     4.392000000
O     2.364000000     6.577000000     0.813000000
H     2.471000000     5.695000000     1.167000000
H     2.959000000     6.609000000     0.064000000
O     3.924000000     6.467000000     4.085000000
H     3.888000000     6.324000000     5.031000000
H     4.344000000     5.679000000     3.739000000
O     4.900000000     6.793000000    -0.687000000
H     4.769000000     5.847000000    -0.628000000
H     4.698000000     7.007000000    -1.598000000
O     4.346000000     4.874000000    -5.029000000
H     4.761000000     5.363000000    -5.740000000
H     3.770000000     4.251000000    -5.472000000
O     3.365000000     6.871000000    -3.301000000
H     2.443000000     6.646000000    -3.429000000
H     3.845000000     6.112000000    -3.632000000
O     7.746000000     6.083000000    -0.125000000
H     7.287000000     5.910000000    -0.947000000
H     7.580000000     5.308000000     0.410000000
O     0.380000000     7.398000000    -3.244000000
H     0.223000000     7.640000000    -2.332000000
H     0.223000000     6.455000000    -3.273000000
O     8.284000000     3.391000000    -2.461000000
H     8.473000000     4.065000000    -3.114000000
H     7.329000000     3.381000000    -2.396000000
O     1.689000000     8.778000000     1.973000000
H     1.917000000     7.980000000     1.496000000
H     1.284000000     9.343000000     1.314000000
O     1.428000000     4.859000000     3.596000000
H     2.029000000     5.375000000     4.133000000
H     1.984000000     4.470000000     2.921000000
O     7.095000000     6.461000000     2.955000000
H     6.962000000     5.715000000     2.371000000
H     6.790000000     7.216000000     2.452000000
O     5.830000000     8.230000000     1.574000000
H     5.693000000     7.942000000     0.671000000
H     5.013000000     8.008000000     2.021000000
O    -0.235000000     7.546000000    -0.236000000
H    -0.034000000     8.480000000    -0.187000000
H     0.608000000     7.112000000    -0.104000000
