215
-1428.63712
C     2.388000000     0.181000000     5.161000000
H     3.087000000    -0.471000000     4.645000000
C     0.993000000     0.061000000     5.047000000
C     0.146000000     1.067000000     5.449000000
H    -0.922000000     1.055000000     5.244000000
C     0.487000000    -1.168000000     4.336000000
O     1.338000000    -2.314000000     4.356000000
H     0.358000000    -0.934000000     3.269000000
O    -0.874000000    -1.510000000     4.735000000
C    -1.838000000    -1.867000000     3.834000000
C    -2.800000000    -0.872000000     3.468000000
H    -2.865000000     0.167000000     3.781000000
C    -3.763000000    -1.178000000     2.520000000
O    -4.496000000    -0.187000000     1.984000000
C    -3.728000000    -2.428000000     1.865000000
C    -4.712000000    -2.826000000     0.771000000
H    -4.793000000    -3.913000000     0.830000000
C    -4.396000000    -2.475000000    -0.677000000
C    -3.752000000    -3.452000000    -1.527000000
H    -3.575000000    -4.454000000    -1.145000000
H    -5.698000000    -2.461000000     1.069000000
C    -2.896000000    -3.414000000     2.282000000
H    -2.715000000    -4.315000000     1.701000000
C    -1.914000000    -3.120000000     3.298000000
C    -0.935000000    -4.108000000     3.828000000
H    -1.334000000    -5.124000000     3.839000000
H    -0.806000000    -3.941000000     4.900000000
C     0.338000000    -4.007000000     2.960000000
C     0.457000000    -4.762000000     1.772000000
H    -0.421000000    -5.299000000     1.421000000
C     1.364000000    -3.146000000     3.278000000
C     2.477000000    -3.037000000     2.457000000
H     3.345000000    -2.408000000     2.636000000
C     2.537000000    -3.677000000     1.258000000
O     3.581000000    -3.410000000     0.383000000
C     3.268000000    -2.486000000    -0.670000000
C     4.261000000    -1.365000000    -0.739000000
C     4.661000000    -0.954000000    -1.994000000
H     4.332000000    -1.508000000    -2.869000000
C     4.651000000    -0.618000000     0.371000000
H     4.404000000    -0.904000000     1.390000000
O     3.129000000    -3.270000000    -1.878000000
H     2.368000000    -1.916000000    -0.394000000
C     1.513000000    -4.557000000     0.903000000
C     1.498000000    -5.282000000    -0.494000000
H     0.843000000    -6.154000000    -0.439000000
H     2.524000000    -5.596000000    -0.697000000
C     1.020000000    -4.424000000    -1.743000000
C    -0.291000000    -4.519000000    -2.178000000
H    -0.869000000    -5.212000000    -1.573000000
C     1.903000000    -3.600000000    -2.382000000
C     1.460000000    -2.800000000    -3.423000000
H     2.094000000    -2.006000000    -3.809000000
C     0.114000000    -2.863000000    -3.846000000
O    -0.369000000    -1.789000000    -4.618000000
C    -1.224000000    -0.767000000    -4.007000000
C    -0.845000000     0.563000000    -4.593000000
C     0.514000000     0.935000000    -4.711000000
H     1.257000000     0.217000000    -4.372000000
C    -1.796000000     1.506000000    -4.972000000
H    -2.823000000     1.151000000    -4.987000000
O    -2.600000000    -1.146000000    -4.180000000
H    -0.981000000    -0.767000000    -2.935000000
C    -0.780000000    -3.791000000    -3.271000000
C    -2.268000000    -3.966000000    -3.658000000
H    -2.608000000    -5.001000000    -3.591000000
H    -2.339000000    -3.706000000    -4.716000000
C    -3.141000000    -2.991000000    -2.745000000
C    -3.339000000    -1.647000000    -3.166000000
C    -4.000000000    -0.735000000    -2.331000000
H    -3.941000000     0.332000000    -2.529000000
C    -4.554000000    -1.154000000    -1.125000000
O    -5.059000000    -0.150000000    -0.361000000
C    -4.168000000     0.375000000     0.668000000
H    -3.190000000    -0.056000000     0.408000000
C    -3.879000000     1.891000000     0.567000000
C    -3.176000000     2.438000000     1.654000000
H    -2.924000000     1.990000000     2.612000000
C    -4.181000000     2.692000000    -0.523000000
H    -4.789000000     2.391000000    -1.372000000
C    -3.867000000     4.022000000    -0.564000000
O    -4.187000000     4.843000000    -1.572000000
C    -3.083000000     4.521000000     0.444000000
H    -2.754000000     5.557000000     0.420000000
C    -2.794000000     3.782000000     1.563000000
O    -2.144000000     4.487000000     2.601000000
C    -2.252000000     4.106000000     3.907000000
C    -1.121000000     3.758000000     4.644000000
H    -0.164000000     3.759000000     4.129000000
C    -3.508000000     4.269000000     4.532000000
H    -4.381000000     4.492000000     3.924000000
C    -3.649000000     4.134000000     5.928000000
H    -4.601000000     4.156000000     6.452000000
C    -2.528000000     3.708000000     6.623000000
H    -2.589000000     3.470000000     7.682000000
C    -1.312000000     3.462000000     5.955000000
O    -0.179000000     3.170000000     6.655000000
C     0.720000000     2.156000000     6.142000000
C     2.116000000     2.284000000     6.313000000
H     2.538000000     3.148000000     6.820000000
C     2.946000000     1.333000000     5.714000000
O     4.307000000     1.697000000     5.760000000
C     5.146000000     1.129000000     4.880000000
C     4.989000000     1.403000000     3.540000000
H     4.221000000     2.153000000     3.369000000
C     6.206000000     0.305000000     5.281000000
H     6.375000000     0.057000000     6.325000000
C     7.055000000    -0.278000000     4.304000000
H     7.958000000    -0.787000000     4.631000000
C     6.935000000     0.059000000     2.949000000
H     7.726000000    -0.178000000     2.242000000
C     5.882000000     0.880000000     2.569000000
O     5.744000000     1.300000000     1.325000000
C     5.469000000     0.517000000     0.202000000
C     6.006000000     0.836000000    -1.049000000
H     6.716000000     1.638000000    -1.238000000
C     5.544000000     0.136000000    -2.156000000
O     6.075000000     0.492000000    -3.421000000
C     5.259000000     0.767000000    -4.509000000
C     4.183000000     1.596000000    -4.360000000
H     4.039000000     2.272000000    -3.521000000
C     5.438000000     0.086000000    -5.713000000
H     6.348000000    -0.506000000    -5.764000000
C     4.588000000     0.184000000    -6.777000000
H     4.796000000    -0.364000000    -7.693000000
C     3.483000000     0.994000000    -6.558000000
H     2.782000000     1.045000000    -7.387000000
C     3.263000000     1.759000000    -5.413000000
O     2.158000000     2.620000000    -5.297000000
C     0.837000000     2.185000000    -5.174000000
C    -0.076000000     3.047000000    -5.631000000
H     0.308000000     3.961000000    -6.077000000
C    -1.388000000     2.765000000    -5.422000000
O    -2.382000000     3.668000000    -5.761000000
C    -3.522000000     3.856000000    -5.064000000
C    -4.805000000     3.430000000    -5.476000000
H    -4.873000000     3.183000000    -6.532000000
C    -5.899000000     3.601000000    -4.636000000
H    -6.918000000     3.373000000    -4.938000000
C    -5.731000000     4.154000000    -3.334000000
H    -6.585000000     4.384000000    -2.702000000
C    -4.468000000     4.364000000    -2.874000000
C    -3.335000000     4.215000000    -3.701000000
H    -2.348000000     4.371000000    -3.272000000
C     1.090000000     1.813000000    -0.995000000
H     1.387000000     2.257000000    -1.942000000
C     0.607000000     0.540000000    -0.978000000
H     0.705000000    -0.043000000    -1.890000000
C    -0.002000000     0.054000000     0.146000000
H    -0.433000000    -0.908000000     0.063000000
C    -0.123000000     0.837000000     1.301000000
H    -0.437000000     0.434000000     2.260000000
C     0.421000000     2.129000000     1.308000000
H     0.408000000     2.741000000     2.206000000
C     0.903000000     2.658000000     0.117000000
C     1.220000000     4.074000000    -0.080000000
O     1.075000000     4.857000000     0.885000000
O     1.651000000     4.540000000    -1.103000000
O     0.228000000     6.796000000     4.398000000
H     0.282000000     7.312000000     3.594000000
H     0.999000000     6.230000000     4.373000000
O     6.784000000     7.451000000     1.651000000
H     7.041000000     7.662000000     2.548000000
H     7.064000000     6.544000000     1.528000000
O     4.048000000     8.392000000     2.685000000
H     4.864000000     8.067000000     2.305000000
H     3.442000000     8.439000000     1.946000000
O     6.455000000     3.776000000    -2.314000000
H     6.286000000     4.088000000    -3.203000000
H     5.588000000     3.714000000    -1.914000000
O     4.974000000     7.157000000    -4.246000000
H     4.915000000     7.349000000    -5.182000000
H     5.310000000     6.262000000    -4.205000000
O    -3.232000000     7.348000000    -2.950000000
H    -2.680000000     8.122000000    -3.066000000
H    -2.624000000     6.657000000    -2.687000000
O    -2.053000000     9.571000000     0.518000000
H    -1.554000000    10.316000000     0.184000000
H    -2.833000000     9.538000000    -0.035000000
O     4.292000000     4.088000000    -0.561000000
H     4.108000000     3.671000000     0.281000000
H     3.430000000     4.325000000    -0.904000000
O     2.114000000     6.757000000    -2.642000000
H     2.012000000     5.912000000    -2.204000000
H     3.060000000     6.893000000    -2.684000000
O    -1.073000000     6.115000000    -1.466000000
H    -0.236000000     5.698000000    -1.669000000
H    -0.964000000     6.452000000    -0.577000000
O     5.120000000     4.840000000     2.596000000
H     5.041000000     4.999000000     3.536000000
H     4.478000000     5.429000000     2.199000000
O     0.526000000     8.744000000    -3.595000000
H     0.745000000     8.060000000    -2.963000000
H     1.346000000     9.220000000    -3.726000000
O     2.726000000     5.718000000     6.622000000
H     2.446000000     6.207000000     7.396000000
H     2.533000000     6.300000000     5.887000000
O     1.415000000     8.843000000     0.775000000
H     1.696000000     7.936000000     0.652000000
H     0.479000000     8.780000000     0.964000000
O     4.566000000     9.009000000    -2.221000000
H     4.742000000     8.524000000    -3.028000000
H     5.368000000     8.920000000    -1.708000000
O    -0.499000000     7.055000000     1.827000000
H     0.053000000     6.333000000     1.527000000
H    -1.321000000     6.637000000     2.085000000
O    -1.729000000    10.315000000    -2.852000000
H    -0.898000000     9.841000000    -2.818000000
H    -1.748000000    10.823000000    -2.041000000
O     2.196000000     4.985000000     3.255000000
H     3.069000000     4.610000000     3.139000000
H     1.835000000     5.029000000     2.369000000
O     3.104000000     6.692000000     0.622000000
H     2.817000000     5.864000000     0.237000000
H     3.812000000     6.990000000     0.051000000
