215
-1439.52060
C     2.394000000    -0.884000000     4.727000000
H     3.027000000    -1.728000000     4.466000000
C     1.004000000    -0.788000000     4.571000000
C     0.379000000     0.410000000     5.001000000
H    -0.678000000     0.625000000     4.869000000
C     0.209000000    -1.809000000     3.787000000
O     0.857000000    -3.066000000     3.764000000
H     0.053000000    -1.556000000     2.728000000
O    -1.060000000    -2.109000000     4.396000000
C    -2.106000000    -2.217000000     3.542000000
C    -2.859000000    -1.061000000     3.289000000
H    -2.668000000    -0.177000000     3.891000000
C    -3.849000000    -1.085000000     2.307000000
O    -4.440000000     0.155000000     2.033000000
C    -4.054000000    -2.165000000     1.429000000
C    -5.102000000    -2.140000000     0.363000000
H    -5.386000000    -3.180000000     0.190000000
C    -4.595000000    -1.591000000    -0.895000000
C    -3.983000000    -2.453000000    -1.842000000
H    -3.802000000    -3.510000000    -1.666000000
H    -5.881000000    -1.467000000     0.729000000
C    -3.220000000    -3.227000000     1.639000000
H    -3.355000000    -4.102000000     1.008000000
C    -2.294000000    -3.310000000     2.712000000
C    -1.404000000    -4.537000000     2.826000000
H    -1.990000000    -5.384000000     2.461000000
H    -1.230000000    -4.640000000     3.899000000
C    -0.114000000    -4.424000000     2.133000000
C     0.006000000    -5.006000000     0.821000000
H    -0.904000000    -5.449000000     0.424000000
C     0.970000000    -3.702000000     2.562000000
C     2.085000000    -3.549000000     1.831000000
H     2.911000000    -3.121000000     2.394000000
C     2.240000000    -4.108000000     0.544000000
O     3.246000000    -3.717000000    -0.257000000
C     3.072000000    -2.630000000    -1.160000000
C     4.139000000    -1.543000000    -1.192000000
C     4.216000000    -0.654000000    -2.304000000
H     3.691000000    -0.889000000    -3.226000000
C     4.779000000    -1.282000000    -0.052000000
H     4.615000000    -1.990000000     0.757000000
O     2.834000000    -3.180000000    -2.523000000
H     2.112000000    -2.163000000    -0.895000000
C     1.099000000    -4.756000000     0.031000000
C     0.979000000    -5.359000000    -1.368000000
H     0.282000000    -6.198000000    -1.310000000
H     1.957000000    -5.769000000    -1.629000000
C     0.602000000    -4.242000000    -2.352000000
C    -0.799000000    -4.127000000    -2.688000000
H    -1.606000000    -4.693000000    -2.229000000
C     1.535000000    -3.331000000    -2.898000000
C     1.050000000    -2.336000000    -3.751000000
H     1.635000000    -1.503000000    -4.133000000
C    -0.276000000    -2.310000000    -4.165000000
O    -0.675000000    -1.266000000    -4.954000000
C    -1.259000000    -0.085000000    -4.277000000
C    -0.624000000     1.219000000    -4.690000000
C     0.418000000     1.228000000    -5.654000000
H     0.759000000     0.279000000    -6.060000000
C    -1.101000000     2.475000000    -4.287000000
H    -1.886000000     2.586000000    -3.544000000
O    -2.730000000    -0.084000000    -4.372000000
H    -1.005000000    -0.197000000    -3.212000000
C    -1.204000000    -3.110000000    -3.618000000
C    -2.676000000    -2.954000000    -3.974000000
H    -3.065000000    -3.975000000    -3.960000000
H    -2.856000000    -2.566000000    -4.978000000
C    -3.391000000    -1.979000000    -3.039000000
C    -3.505000000    -0.617000000    -3.317000000
C    -4.078000000     0.240000000    -2.426000000
H    -4.125000000     1.302000000    -2.653000000
C    -4.562000000    -0.215000000    -1.211000000
O    -4.798000000     0.805000000    -0.271000000
C    -3.973000000     0.929000000     0.870000000
H    -2.982000000     0.546000000     0.586000000
C    -3.874000000     2.349000000     1.387000000
C    -3.860000000     2.685000000     2.708000000
H    -3.985000000     1.930000000     3.480000000
C    -3.692000000     3.413000000     0.475000000
H    -3.615000000     3.104000000    -0.564000000
C    -3.531000000     4.756000000     0.820000000
O    -3.377000000     5.778000000    -0.056000000
C    -3.457000000     5.018000000     2.228000000
H    -3.156000000     6.001000000     2.580000000
C    -3.668000000     4.003000000     3.146000000
O    -3.605000000     4.272000000     4.535000000
C    -2.942000000     3.581000000     5.442000000
C    -1.583000000     3.436000000     5.334000000
H    -1.005000000     4.003000000     4.610000000
C    -3.632000000     2.932000000     6.458000000
H    -4.717000000     2.930000000     6.521000000
C    -2.944000000     2.173000000     7.416000000
H    -3.533000000     1.652000000     8.166000000
C    -1.519000000     2.010000000     7.308000000
H    -0.960000000     1.364000000     7.980000000
C    -0.867000000     2.692000000     6.265000000
O     0.526000000     2.531000000     6.209000000
C     1.115000000     1.360000000     5.748000000
C     2.492000000     1.267000000     5.838000000
H     3.052000000     2.019000000     6.389000000
C     3.070000000     0.148000000     5.355000000
O     4.451000000    -0.031000000     5.581000000
C     5.288000000    -0.513000000     4.603000000
C     5.263000000     0.055000000     3.363000000
H     4.727000000     0.981000000     3.170000000
C     6.030000000    -1.577000000     4.893000000
H     5.887000000    -1.979000000     5.893000000
C     6.865000000    -2.145000000     3.952000000
H     7.455000000    -3.019000000     4.216000000
C     6.909000000    -1.551000000     2.694000000
H     7.642000000    -1.892000000     1.968000000
C     6.167000000    -0.391000000     2.429000000
O     6.259000000     0.156000000     1.143000000
C     5.692000000    -0.207000000     0.027000000
C     5.784000000     0.705000000    -1.079000000
H     6.384000000     1.579000000    -0.838000000
C     5.007000000     0.447000000    -2.213000000
O     4.811000000     1.447000000    -3.132000000
C     4.630000000     1.210000000    -4.484000000
C     3.586000000     1.851000000    -5.130000000
H     3.108000000     2.609000000    -4.514000000
C     5.361000000     0.346000000    -5.264000000
H     6.252000000    -0.014000000    -4.756000000
C     5.129000000     0.086000000    -6.618000000
H     5.864000000    -0.554000000    -7.100000000
C     4.072000000     0.845000000    -7.207000000
H     3.850000000     0.757000000    -8.267000000
C     3.254000000     1.642000000    -6.408000000
O     2.074000000     2.295000000    -6.856000000
C     0.965000000     2.431000000    -6.033000000
C     0.437000000     3.686000000    -5.651000000
H     0.820000000     4.599000000    -6.101000000
C    -0.579000000     3.652000000    -4.726000000
O    -1.077000000     4.894000000    -4.340000000
C    -2.197000000     5.102000000    -3.521000000
C    -3.406000000     5.349000000    -4.215000000
H    -3.431000000     5.376000000    -5.301000000
C    -4.592000000     5.523000000    -3.555000000
H    -5.566000000     5.730000000    -3.992000000
C    -4.521000000     5.748000000    -2.190000000
H    -5.398000000     6.056000000    -1.626000000
C    -3.367000000     5.614000000    -1.442000000
C    -2.233000000     5.201000000    -2.136000000
H    -1.330000000     4.997000000    -1.566000000
C     1.234000000     1.865000000    -1.157000000
H     1.829000000     2.231000000    -1.990000000
C     0.720000000     0.526000000    -1.150000000
H     0.972000000    -0.178000000    -1.939000000
C    -0.143000000     0.080000000    -0.166000000
H    -0.489000000    -0.983000000    -0.191000000
C    -0.451000000     0.941000000     0.859000000
H    -1.125000000     0.559000000     1.622000000
C     0.065000000     2.184000000     0.933000000
H    -0.114000000     2.835000000     1.785000000
C     0.923000000     2.707000000    -0.083000000
C     1.533000000     4.083000000    -0.010000000
O     1.676000000     4.544000000     1.131000000
O     2.103000000     4.609000000    -0.897000000
O     1.493000000     7.012000000    -2.352000000
H     1.207000000     7.778000000    -1.854000000
H     1.633000000     6.335000000    -1.691000000
O     5.672000000     3.821000000     3.096000000
H     4.724000000     3.685000000     3.095000000
H     5.867000000     4.148000000     2.218000000
O    -0.177000000     8.450000000     1.034000000
H     0.611000000     7.919000000     0.917000000
H     0.147000000     9.349000000     1.094000000
O     4.769000000     4.783000000     0.140000000
H     3.831000000     4.621000000     0.249000000
H     4.969000000     4.446000000    -0.733000000
O     2.533000000     4.714000000    -3.543000000
H     2.149000000     4.459000000    -2.704000000
H     2.509000000     5.671000000    -3.537000000
O     5.680000000     7.017000000     4.687000000
H     5.431000000     7.555000000     3.936000000
H     4.982000000     6.366000000     4.758000000
O     6.078000000     8.768000000     0.722000000
H     6.858000000     8.261000000     0.948000000
H     5.633000000     8.240000000     0.059000000
O    -0.397000000     5.813000000     2.337000000
H     0.299000000     5.316000000     1.906000000
H    -0.296000000     6.704000000     2.004000000
O     3.004000000     3.683000000     3.129000000
H     2.648000000     2.831000000     3.381000000
H     2.472000000     3.952000000     2.380000000
O     4.418000000     7.728000000    -4.493000000
H     3.598000000     7.398000000    -4.125000000
H     4.492000000     8.619000000    -4.151000000
O     4.673000000     7.355000000    -0.965000000
H     5.087000000     7.232000000    -1.820000000
H     4.790000000     6.516000000    -0.519000000
O     3.246000000     7.585000000     3.089000000
H     3.032000000     7.120000000     2.280000000
H     2.406000000     7.928000000     3.397000000
O     0.848000000     8.100000000    -4.882000000
H     1.180000000     8.966000000    -4.644000000
H     0.948000000     7.578000000    -4.086000000
O    -1.464000000     8.676000000    -1.423000000
H    -0.667000000     9.190000000    -1.557000000
H    -1.217000000     8.014000000    -0.777000000
O     5.632000000     4.163000000    -2.544000000
H     6.100000000     4.462000000    -3.324000000
H     4.908000000     3.639000000    -2.885000000
O    -2.615000000     9.010000000     2.037000000
H    -1.896000000     8.733000000     1.469000000
H    -2.274000000     8.904000000     2.925000000
O    -0.920000000     7.290000000     4.654000000
H    -0.148000000     7.842000000     4.529000000
H    -0.823000000     6.593000000     4.005000000
O     3.476000000     5.275000000     5.251000000
H     3.061000000     5.222000000     4.390000000
H     2.771000000     5.538000000     5.842000000
O     2.160000000     7.109000000     0.433000000
H     2.047000000     6.176000000     0.611000000
H     2.977000000     7.162000000    -0.063000000
