215
-1456.30391
C     2.480000000    -1.124000000     4.911000000
H     2.741000000    -2.179000000     4.884000000
C     1.133000000    -0.817000000     4.536000000
C     0.771000000     0.559000000     4.533000000
H    -0.217000000     0.784000000     4.139000000
C     0.272000000    -1.948000000     3.898000000
O     0.848000000    -3.294000000     3.820000000
H     0.139000000    -1.548000000     2.882000000
O    -0.989000000    -2.038000000     4.536000000
C    -2.168000000    -2.169000000     3.778000000
C    -2.975000000    -0.997000000     3.662000000
H    -2.849000000    -0.108000000     4.274000000
C    -3.880000000    -0.935000000     2.596000000
O    -4.431000000     0.235000000     2.298000000
C    -4.190000000    -2.072000000     1.855000000
C    -5.194000000    -1.938000000     0.721000000
H    -5.783000000    -2.847000000     0.582000000
C    -4.535000000    -1.395000000    -0.564000000
C    -4.138000000    -2.349000000    -1.542000000
H    -4.221000000    -3.381000000    -1.210000000
H    -5.955000000    -1.217000000     1.026000000
C    -3.427000000    -3.188000000     2.022000000
H    -3.654000000    -4.035000000     1.379000000
C    -2.417000000    -3.240000000     2.979000000
C    -1.569000000    -4.480000000     3.083000000
H    -2.211000000    -5.339000000     2.879000000
H    -1.296000000    -4.702000000     4.117000000
C    -0.341000000    -4.503000000     2.160000000
C    -0.349000000    -5.001000000     0.878000000
H    -1.302000000    -5.296000000     0.448000000
C     0.819000000    -3.951000000     2.655000000
C     1.949000000    -3.810000000     1.791000000
H     2.854000000    -3.286000000     2.086000000
C     1.966000000    -4.368000000     0.511000000
O     3.005000000    -4.041000000    -0.329000000
C     2.733000000    -2.903000000    -1.178000000
C     3.881000000    -1.878000000    -1.121000000
C     3.985000000    -0.865000000    -2.052000000
H     3.373000000    -0.969000000    -2.945000000
C     4.681000000    -1.785000000     0.046000000
H     4.700000000    -2.572000000     0.796000000
O     2.443000000    -3.379000000    -2.528000000
H     1.901000000    -2.391000000    -0.674000000
C     0.756000000    -4.941000000     0.023000000
C     0.697000000    -5.332000000    -1.432000000
H     0.088000000    -6.227000000    -1.575000000
H     1.703000000    -5.543000000    -1.799000000
C     0.218000000    -4.253000000    -2.295000000
C    -1.148000000    -4.227000000    -2.620000000
H    -1.924000000    -4.792000000    -2.110000000
C     1.089000000    -3.361000000    -2.886000000
C     0.685000000    -2.467000000    -3.902000000
H     1.463000000    -1.836000000    -4.324000000
C    -0.697000000    -2.349000000    -4.145000000
O    -1.063000000    -1.334000000    -4.991000000
C    -1.534000000    -0.120000000    -4.296000000
C    -1.038000000     1.162000000    -4.891000000
C     0.308000000     1.278000000    -5.392000000
H     0.984000000     0.428000000    -5.332000000
C    -1.754000000     2.334000000    -4.678000000
H    -2.725000000     2.243000000    -4.197000000
O    -2.961000000    -0.099000000    -4.110000000
H    -1.071000000    -0.179000000    -3.301000000
C    -1.540000000    -3.216000000    -3.516000000
C    -3.082000000    -3.038000000    -3.786000000
H    -3.510000000    -4.033000000    -3.652000000
H    -3.306000000    -2.704000000    -4.801000000
C    -3.681000000    -2.004000000    -2.799000000
C    -3.537000000    -0.631000000    -2.989000000
C    -3.975000000     0.296000000    -2.124000000
H    -3.688000000     1.280000000    -2.486000000
C    -4.467000000    -0.061000000    -0.842000000
O    -4.955000000     0.813000000     0.054000000
C    -4.059000000     0.984000000     1.177000000
H    -3.108000000     0.516000000     0.882000000
C    -3.780000000     2.471000000     1.417000000
C    -3.687000000     2.988000000     2.698000000
H    -3.814000000     2.326000000     3.551000000
C    -3.602000000     3.377000000     0.359000000
H    -3.621000000     3.076000000    -0.685000000
C    -3.373000000     4.761000000     0.618000000
O    -3.066000000     5.608000000    -0.383000000
C    -3.241000000     5.229000000     1.899000000
H    -2.986000000     6.270000000     2.077000000
C    -3.286000000     4.278000000     2.925000000
O    -3.036000000     4.794000000     4.172000000
C    -2.083000000     4.254000000     4.947000000
C    -0.827000000     3.872000000     4.444000000
H    -0.695000000     4.030000000     3.377000000
C    -2.304000000     4.162000000     6.361000000
H    -3.251000000     4.492000000     6.782000000
C    -1.324000000     3.689000000     7.176000000
H    -1.468000000     3.573000000     8.247000000
C    -0.101000000     3.238000000     6.629000000
H     0.709000000     2.935000000     7.288000000
C     0.171000000     3.389000000     5.276000000
O     1.306000000     2.870000000     4.705000000
C     1.634000000     1.571000000     4.875000000
C     2.963000000     1.244000000     5.174000000
H     3.625000000     2.049000000     5.484000000
C     3.391000000    -0.085000000     5.252000000
O     4.705000000    -0.399000000     5.517000000
C     5.573000000    -1.027000000     4.588000000
C     5.738000000    -0.709000000     3.206000000
H     5.183000000     0.147000000     2.832000000
C     6.333000000    -2.115000000     5.062000000
H     6.235000000    -2.318000000     6.126000000
C     7.194000000    -2.742000000     4.211000000
H     7.727000000    -3.619000000     4.570000000
C     7.415000000    -2.307000000     2.903000000
H     8.141000000    -2.785000000     2.250000000
C     6.576000000    -1.359000000     2.349000000
O     6.669000000    -0.861000000     1.057000000
C     5.666000000    -0.757000000     0.114000000
C     5.709000000     0.261000000    -0.841000000
H     6.418000000     1.073000000    -0.700000000
C     4.778000000     0.250000000    -1.882000000
O     4.720000000     1.327000000    -2.776000000
C     4.507000000     1.116000000    -4.123000000
C     3.354000000     1.692000000    -4.607000000
H     2.695000000     2.253000000    -3.950000000
C     5.378000000     0.410000000    -5.011000000
H     6.225000000    -0.164000000    -4.643000000
C     5.087000000     0.387000000    -6.405000000
H     5.690000000    -0.157000000    -7.127000000
C     3.929000000     1.052000000    -6.871000000
H     3.642000000     0.975000000    -7.917000000
C     3.127000000     1.826000000    -5.996000000
O     2.100000000     2.536000000    -6.495000000
C     0.867000000     2.470000000    -5.922000000
C     0.072000000     3.614000000    -5.787000000
H     0.419000000     4.582000000    -6.140000000
C    -1.167000000     3.558000000    -5.145000000
O    -1.965000000     4.714000000    -5.034000000
C    -2.893000000     4.901000000    -4.034000000
C    -4.204000000     5.308000000    -4.438000000
H    -4.494000000     5.290000000    -5.486000000
C    -5.137000000     5.770000000    -3.486000000
H    -6.120000000     6.098000000    -3.815000000
C    -4.754000000     5.912000000    -2.177000000
H    -5.451000000     6.308000000    -1.443000000
C    -3.515000000     5.484000000    -1.741000000
C    -2.599000000     4.949000000    -2.654000000
H    -1.599000000     4.797000000    -2.255000000
C     1.562000000     1.711000000    -0.889000000
H     2.330000000     1.910000000    -1.632000000
C     0.760000000     0.589000000    -0.977000000
H     0.808000000    -0.059000000    -1.848000000
C     0.017000000     0.157000000     0.137000000
H    -0.488000000    -0.798000000     0.078000000
C    -0.065000000     0.990000000     1.249000000
H    -0.642000000     0.667000000     2.111000000
C     0.531000000     2.245000000     1.223000000
H     0.288000000     2.921000000     2.039000000
C     1.379000000     2.624000000     0.153000000
C     2.042000000     3.972000000     0.059000000
O     2.105000000     4.692000000     1.030000000
O     2.483000000     4.361000000    -0.992000000
O     0.605000000     6.459000000    -1.933000000
H     0.948000000     6.335000000    -2.818000000
H     1.348000000     6.270000000    -1.360000000
O     5.983000000     4.161000000     1.619000000
H     5.111000000     3.982000000     1.972000000
H     5.834000000     4.336000000     0.690000000
O     5.095000000     4.832000000    -0.872000000
H     4.152000000     4.696000000    -0.972000000
H     5.421000000     4.914000000    -1.768000000
O     2.763000000     5.595000000    -3.437000000
H     2.776000000     5.218000000    -2.557000000
H     3.557000000     5.260000000    -3.853000000
O     3.010000000     8.251000000     3.716000000
H     2.219000000     7.952000000     3.268000000
H     3.364000000     8.934000000     3.147000000
O     6.517000000     7.143000000    -0.140000000
H     6.814000000     7.531000000    -0.963000000
H     5.993000000     6.387000000    -0.407000000
O    -0.237000000     6.230000000     1.158000000
H     0.544000000     5.688000000     1.274000000
H    -0.576000000     5.981000000     0.299000000
O    -1.813000000     8.231000000    -2.771000000
H    -0.886000000     8.414000000    -2.925000000
H    -1.830000000     7.325000000    -2.461000000
O     8.309000000     2.646000000     1.571000000
H     7.421000000     2.998000000     1.507000000
H     8.669000000     3.048000000     2.362000000
O     3.516000000     4.045000000     3.090000000
H     2.879000000     3.679000000     3.702000000
H     2.998000000     4.293000000     2.324000000
O     4.564000000     4.806000000    -5.453000000
H     4.287000000     5.652000000    -5.804000000
H     3.898000000     4.190000000    -5.759000000
O     3.548000000     9.903000000     1.192000000
H     3.135000000     9.069000000     0.971000000
H     3.603000000    10.371000000     0.358000000
O     5.219000000     6.548000000     4.764000000
H     5.394000000     5.973000000     4.019000000
H     4.943000000     7.375000000     4.369000000
O     4.181000000     4.478000000     6.254000000
H     4.032000000     4.971000000     7.061000000
H     4.505000000     5.130000000     5.632000000
O     6.490000000     6.530000000    -2.866000000
H     5.990000000     6.629000000    -3.676000000
H     7.386000000     6.362000000    -3.157000000
O     5.214000000     9.518000000    -2.874000000
H     6.088000000     9.493000000    -2.483000000
H     4.933000000     8.603000000    -2.890000000
O     0.478000000     8.404000000     2.297000000
H     0.759000000     8.914000000     1.537000000
H    -0.014000000     7.672000000     1.927000000
O     2.776000000     7.213000000     0.140000000
H     2.290000000     6.462000000     0.480000000
H     3.602000000     6.843000000    -0.172000000
O     6.148000000     9.140000000     2.066000000
H     5.506000000     9.834000000     1.916000000
H     6.188000000     8.667000000     1.236000000
