215
-1458.28071
C     2.363000000    -0.610000000     4.173000000
H     2.804000000    -1.593000000     4.032000000
C     0.971000000    -0.425000000     4.032000000
C     0.378000000     0.788000000     4.497000000
H    -0.692000000     0.921000000     4.359000000
C    -0.012000000    -1.571000000     3.656000000
O     0.654000000    -2.877000000     3.810000000
H    -0.339000000    -1.391000000     2.621000000
O    -1.311000000    -1.642000000     4.344000000
C    -2.474000000    -1.757000000     3.583000000
C    -3.336000000    -0.635000000     3.381000000
H    -3.035000000     0.284000000     3.877000000
C    -4.250000000    -0.700000000     2.323000000
O    -4.860000000     0.416000000     2.006000000
C    -4.489000000    -1.897000000     1.604000000
C    -5.428000000    -1.863000000     0.372000000
H    -5.730000000    -2.911000000     0.318000000
C    -4.625000000    -1.459000000    -0.888000000
C    -4.126000000    -2.374000000    -1.806000000
H    -4.189000000    -3.444000000    -1.622000000
H    -6.317000000    -1.259000000     0.563000000
C    -3.756000000    -3.012000000     1.880000000
H    -3.962000000    -3.866000000     1.239000000
C    -2.683000000    -2.938000000     2.801000000
C    -1.790000000    -4.160000000     3.064000000
H    -2.336000000    -5.076000000     2.831000000
H    -1.515000000    -4.077000000     4.118000000
C    -0.489000000    -4.168000000     2.244000000
C    -0.479000000    -4.813000000     0.994000000
H    -1.375000000    -5.229000000     0.541000000
C     0.742000000    -3.660000000     2.688000000
C     1.930000000    -3.678000000     1.990000000
H     2.748000000    -3.130000000     2.451000000
C     1.930000000    -4.188000000     0.733000000
O     3.042000000    -4.078000000    -0.040000000
C     3.068000000    -3.044000000    -1.052000000
C     4.351000000    -2.212000000    -1.027000000
C     4.532000000    -1.199000000    -1.997000000
H     3.805000000    -1.159000000    -2.804000000
C     5.350000000    -2.391000000    -0.074000000
H     5.298000000    -3.168000000     0.684000000
O     2.807000000    -3.621000000    -2.332000000
H     2.328000000    -2.309000000    -0.701000000
C     0.733000000    -4.749000000     0.202000000
C     0.714000000    -5.393000000    -1.120000000
H     0.115000000    -6.298000000    -1.243000000
H     1.736000000    -5.770000000    -1.193000000
C     0.488000000    -4.358000000    -2.202000000
C    -0.860000000    -4.192000000    -2.578000000
H    -1.595000000    -4.844000000    -2.113000000
C     1.499000000    -3.565000000    -2.707000000
C     1.129000000    -2.604000000    -3.660000000
H     1.936000000    -2.026000000    -4.104000000
C    -0.225000000    -2.438000000    -4.012000000
O    -0.451000000    -1.269000000    -4.756000000
C    -1.150000000    -0.153000000    -4.095000000
C    -0.658000000     1.208000000    -4.712000000
C     0.706000000     1.350000000    -4.949000000
H     1.321000000     0.461000000    -4.834000000
C    -1.514000000     2.359000000    -4.797000000
H    -2.560000000     2.245000000    -4.525000000
O    -2.555000000    -0.240000000    -4.330000000
H    -0.893000000    -0.239000000    -3.029000000
C    -1.281000000    -3.225000000    -3.511000000
C    -2.791000000    -3.040000000    -3.886000000
H    -3.240000000    -4.021000000    -3.720000000
H    -3.033000000    -2.695000000    -4.893000000
C    -3.395000000    -1.983000000    -2.917000000
C    -3.276000000    -0.642000000    -3.238000000
C    -3.771000000     0.334000000    -2.330000000
H    -3.703000000     1.393000000    -2.566000000
C    -4.447000000    -0.089000000    -1.159000000
O    -4.906000000     0.887000000    -0.250000000
C    -4.204000000     1.151000000     0.917000000
H    -3.211000000     0.697000000     0.786000000
C    -4.041000000     2.655000000     1.283000000
C    -4.065000000     3.121000000     2.580000000
H    -4.457000000     2.528000000     3.403000000
C    -3.475000000     3.427000000     0.309000000
H    -3.320000000     3.093000000    -0.713000000
C    -3.201000000     4.759000000     0.542000000
O    -2.771000000     5.545000000    -0.491000000
C    -3.053000000     5.250000000     1.795000000
H    -2.782000000     6.282000000     2.005000000
C    -3.558000000     4.446000000     2.821000000
O    -3.476000000     4.867000000     4.133000000
C    -2.688000000     4.212000000     5.046000000
C    -1.412000000     3.848000000     4.684000000
H    -0.957000000     4.105000000     3.731000000
C    -3.113000000     4.192000000     6.319000000
H    -4.084000000     4.596000000     6.594000000
C    -2.283000000     3.658000000     7.336000000
H    -2.604000000     3.567000000     8.370000000
C    -0.963000000     3.251000000     6.982000000
H    -0.234000000     2.891000000     7.703000000
C    -0.577000000     3.250000000     5.651000000
O     0.726000000     3.013000000     5.307000000
C     1.191000000     1.832000000     4.905000000
C     2.584000000     1.662000000     4.913000000
H     3.178000000     2.532000000     5.180000000
C     3.192000000     0.475000000     4.533000000
O     4.570000000     0.409000000     4.611000000
C     5.276000000    -0.691000000     4.174000000
C     5.776000000    -0.646000000     2.838000000
H     5.480000000     0.079000000     2.083000000
C     5.840000000    -1.555000000     5.095000000
H     5.563000000    -1.501000000     6.145000000
C     6.585000000    -2.638000000     4.612000000
H     6.944000000    -3.407000000     5.292000000
C     6.958000000    -2.712000000     3.292000000
H     7.472000000    -3.569000000     2.865000000
C     6.708000000    -1.652000000     2.425000000
O     7.167000000    -1.483000000     1.180000000
C     6.308000000    -1.403000000     0.096000000
C     6.500000000    -0.473000000    -0.909000000
H     7.373000000     0.158000000    -0.759000000
C     5.588000000    -0.285000000    -1.963000000
O     5.695000000     0.750000000    -2.900000000
C     5.021000000     0.767000000    -4.064000000
C     4.049000000     1.769000000    -4.343000000
H     3.800000000     2.499000000    -3.577000000
C     5.498000000     0.010000000    -5.139000000
H     6.200000000    -0.791000000    -4.921000000
C     4.940000000     0.090000000    -6.413000000
H     5.227000000    -0.622000000    -7.183000000
C     3.877000000     0.994000000    -6.606000000
H     3.414000000     0.993000000    -7.589000000
C     3.404000000     1.800000000    -5.605000000
O     2.388000000     2.725000000    -5.835000000
C     1.165000000     2.606000000    -5.370000000
C     0.390000000     3.713000000    -5.414000000
H     0.793000000     4.649000000    -5.794000000
C    -1.001000000     3.634000000    -5.064000000
O    -1.801000000     4.753000000    -5.076000000
C    -2.759000000     4.972000000    -4.084000000
C    -4.146000000     4.970000000    -4.415000000
H    -4.473000000     4.861000000    -5.447000000
C    -5.008000000     5.120000000    -3.361000000
H    -6.094000000     5.064000000    -3.344000000
C    -4.565000000     5.308000000    -2.046000000
H    -5.246000000     5.195000000    -1.206000000
C    -3.207000000     5.356000000    -1.785000000
C    -2.297000000     5.031000000    -2.793000000
H    -1.248000000     4.989000000    -2.512000000
C     0.979000000     1.874000000    -1.120000000
H     1.657000000     2.313000000    -1.847000000
C     0.569000000     0.537000000    -1.022000000
H     0.820000000    -0.238000000    -1.743000000
C    -0.261000000     0.128000000     0.068000000
H    -0.667000000    -0.853000000     0.128000000
C    -0.645000000     1.058000000     1.037000000
H    -1.406000000     0.728000000     1.739000000
C    -0.251000000     2.408000000     0.942000000
H    -0.424000000     3.057000000     1.796000000
C     0.590000000     2.783000000    -0.120000000
C     1.065000000     4.259000000    -0.084000000
O     0.759000000     4.934000000     0.826000000
O     1.828000000     4.705000000    -1.022000000
O     0.551000000     9.476000000    -2.569000000
H     0.538000000     9.716000000    -1.642000000
H     1.292000000     9.961000000    -2.932000000
O     5.724000000     3.321000000     1.253000000
H     5.074000000     3.799000000     1.768000000
H     6.565000000     3.685000000     1.531000000
O     4.524000000     4.183000000    -1.291000000
H     3.583000000     4.271000000    -1.136000000
H     4.818000000     3.558000000    -0.629000000
O     2.923000000     6.431000000    -3.016000000
H     2.635000000     5.842000000    -2.318000000
H     3.233000000     5.847000000    -3.708000000
O     2.232000000     7.805000000     3.986000000
H     1.321000000     8.005000000     3.770000000
H     2.572000000     7.366000000     3.206000000
O     5.535000000     6.533000000    -0.120000000
H     6.423000000     6.695000000    -0.438000000
H     5.234000000     5.778000000    -0.624000000
O    -0.469000000     7.207000000    -0.053000000
H    -0.035000000     6.483000000     0.399000000
H    -1.334000000     6.865000000    -0.277000000
O     2.751000000     3.191000000     2.090000000
H     2.070000000     2.523000000     2.172000000
H     2.278000000     3.985000000     1.842000000
O     4.041000000     5.107000000    -5.268000000
H     3.736000000     4.357000000    -5.779000000
H     3.859000000     5.865000000    -5.823000000
O     3.303000000     9.865000000     2.473000000
H     2.594000000     9.223000000     2.489000000
H     3.220000000    10.334000000     3.304000000
O     4.479000000     5.221000000     3.161000000
H     3.768000000     4.587000000     3.065000000
H     4.155000000     6.011000000     2.729000000
O     0.673000000     7.729000000    -4.803000000
H    -0.116000000     7.207000000    -4.657000000
H     1.118000000     7.732000000    -3.956000000
O    -3.934000000     8.468000000     1.569000000
H    -3.204000000     8.578000000     0.959000000
H    -3.631000000     8.875000000     2.381000000
O    -2.191000000     9.762000000    -0.155000000
H    -2.258000000    10.414000000    -0.852000000
H    -1.263000000     9.760000000     0.083000000
O     6.220000000     4.352000000    -3.549000000
H     5.623000000     4.604000000    -4.254000000
H     5.655000000     4.248000000    -2.783000000
O     4.632000000     8.397000000    -2.257000000
H     5.402000000     7.903000000    -1.975000000
H     3.981000000     7.728000000    -2.466000000
O    -0.047000000     8.561000000     2.328000000
H     0.493000000     9.210000000     1.877000000
H    -0.409000000     8.020000000     1.626000000
O     2.770000000     6.824000000     1.072000000
H     2.256000000     6.113000000     0.692000000
H     3.577000000     6.838000000     0.558000000
O     5.852000000     8.479000000     1.927000000
H     5.095000000     9.063000000     1.967000000
H     5.782000000     8.053000000     1.073000000
