215
-1447.01754
C     2.990000000    -0.668000000     4.773000000
H     3.444000000    -1.615000000     4.491000000
C     1.596000000    -0.453000000     4.657000000
C     1.143000000     0.847000000     4.848000000
H     0.100000000     1.124000000     4.719000000
C     0.607000000    -1.467000000     3.951000000
O     1.028000000    -2.798000000     4.060000000
H     0.398000000    -1.248000000     2.894000000
O    -0.658000000    -1.465000000     4.573000000
C    -1.823000000    -1.717000000     3.863000000
C    -2.664000000    -0.630000000     3.642000000
H    -2.539000000     0.362000000     4.069000000
C    -3.690000000    -0.708000000     2.752000000
O    -4.282000000     0.453000000     2.388000000
C    -3.974000000    -1.842000000     2.079000000
C    -5.070000000    -1.890000000     0.965000000
H    -5.492000000    -2.895000000     0.902000000
C    -4.554000000    -1.487000000    -0.377000000
C    -4.208000000    -2.527000000    -1.355000000
H    -4.397000000    -3.585000000    -1.189000000
H    -5.869000000    -1.273000000     1.380000000
C    -3.201000000    -2.932000000     2.326000000
H    -3.364000000    -3.848000000     1.764000000
C    -2.143000000    -2.884000000     3.222000000
C    -1.431000000    -4.212000000     3.533000000
H    -2.022000000    -5.129000000     3.490000000
H    -1.082000000    -4.086000000     4.560000000
C    -0.173000000    -4.265000000     2.632000000
C    -0.322000000    -4.826000000     1.348000000
H    -1.216000000    -5.317000000     0.973000000
C     1.016000000    -3.627000000     2.960000000
C     2.045000000    -3.616000000     2.080000000
H     2.970000000    -3.087000000     2.298000000
C     1.912000000    -4.129000000     0.862000000
O     2.918000000    -3.775000000    -0.016000000
C     2.724000000    -2.796000000    -1.084000000
C     3.956000000    -1.875000000    -1.256000000
C     4.183000000    -1.179000000    -2.456000000
H     3.460000000    -1.195000000    -3.267000000
C     4.764000000    -1.504000000    -0.167000000
H     4.695000000    -2.031000000     0.781000000
O     2.363000000    -3.439000000    -2.309000000
H     1.862000000    -2.141000000    -0.886000000
C     0.762000000    -4.763000000     0.432000000
C     0.565000000    -5.328000000    -0.936000000
H     0.001000000    -6.259000000    -1.019000000
H     1.500000000    -5.691000000    -1.368000000
C     0.063000000    -4.144000000    -1.861000000
C    -1.292000000    -4.082000000    -2.268000000
H    -2.021000000    -4.641000000    -1.686000000
C     1.007000000    -3.388000000    -2.580000000
C     0.604000000    -2.677000000    -3.715000000
H     1.407000000    -2.059000000    -4.107000000
C    -0.715000000    -2.525000000    -4.035000000
O    -1.075000000    -1.484000000    -4.892000000
C    -1.700000000    -0.278000000    -4.330000000
C    -1.139000000     0.966000000    -4.972000000
C     0.056000000     0.958000000    -5.612000000
H     0.596000000     0.021000000    -5.725000000
C    -1.868000000     2.133000000    -4.816000000
H    -2.822000000     2.038000000    -4.305000000
O    -3.069000000    -0.419000000    -4.224000000
H    -1.369000000    -0.221000000    -3.282000000
C    -1.675000000    -3.282000000    -3.308000000
C    -3.177000000    -3.163000000    -3.596000000
H    -3.667000000    -4.130000000    -3.461000000
H    -3.372000000    -2.992000000    -4.657000000
C    -3.754000000    -2.120000000    -2.637000000
C    -3.563000000    -0.764000000    -2.951000000
C    -3.798000000     0.245000000    -1.978000000
H    -3.422000000     1.261000000    -2.068000000
C    -4.334000000    -0.122000000    -0.721000000
O    -4.599000000     0.916000000     0.144000000
C    -3.758000000     1.207000000     1.268000000
H    -2.751000000     0.798000000     1.096000000
C    -3.589000000     2.710000000     1.464000000
C    -3.259000000     3.148000000     2.753000000
H    -3.299000000     2.478000000     3.607000000
C    -3.628000000     3.602000000     0.377000000
H    -3.905000000     3.161000000    -0.577000000
C    -3.303000000     4.920000000     0.556000000
O    -3.049000000     5.788000000    -0.517000000
C    -2.991000000     5.365000000     1.822000000
H    -2.816000000     6.414000000     2.049000000
C    -2.896000000     4.477000000     2.902000000
O    -2.641000000     4.994000000     4.170000000
C    -1.950000000     4.285000000     5.097000000
C    -0.548000000     3.957000000     4.914000000
H    -0.012000000     4.202000000     4.001000000
C    -2.540000000     3.922000000     6.319000000
H    -3.609000000     4.088000000     6.427000000
C    -1.832000000     3.354000000     7.322000000
H    -2.311000000     3.217000000     8.288000000
C    -0.482000000     3.096000000     7.168000000
H     0.098000000     2.654000000     7.974000000
C     0.109000000     3.362000000     5.931000000
O     1.496000000     3.189000000     5.736000000
C     1.972000000     1.875000000     5.321000000
C     3.304000000     1.688000000     5.312000000
H     3.946000000     2.531000000     5.557000000
C     3.832000000     0.428000000     5.090000000
O     5.125000000     0.208000000     5.105000000
C     5.752000000    -0.477000000     4.133000000
C     5.849000000     0.000000000     2.828000000
H     5.320000000     0.888000000     2.493000000
C     6.376000000    -1.655000000     4.557000000
H     6.304000000    -2.044000000     5.569000000
C     7.074000000    -2.439000000     3.583000000
H     7.629000000    -3.344000000     3.816000000
C     7.157000000    -1.997000000     2.267000000
H     7.615000000    -2.599000000     1.486000000
C     6.609000000    -0.751000000     1.937000000
O     6.699000000    -0.285000000     0.631000000
C     5.768000000    -0.516000000    -0.347000000
C     5.914000000     0.173000000    -1.510000000
H     6.661000000     0.944000000    -1.684000000
C     5.092000000    -0.188000000    -2.584000000
O     5.064000000     0.657000000    -3.743000000
C     4.247000000     0.445000000    -4.851000000
C     3.309000000     1.389000000    -5.175000000
H     3.103000000     2.204000000    -4.486000000
C     4.550000000    -0.570000000    -5.792000000
H     5.352000000    -1.268000000    -5.568000000
C     3.824000000    -0.652000000    -6.992000000
H     3.934000000    -1.537000000    -7.614000000
C     2.792000000     0.206000000    -7.223000000
H     2.232000000     0.210000000    -8.155000000
C     2.689000000     1.297000000    -6.437000000
O     1.772000000     2.239000000    -6.773000000
C     0.526000000     2.102000000    -6.190000000
C    -0.144000000     3.331000000    -5.926000000
H     0.246000000     4.295000000    -6.243000000
C    -1.336000000     3.351000000    -5.255000000
O    -1.931000000     4.574000000    -5.049000000
C    -2.865000000     4.732000000    -4.022000000
C    -4.242000000     4.562000000    -4.304000000
H    -4.458000000     4.195000000    -5.303000000
C    -5.249000000     4.899000000    -3.385000000
H    -6.319000000     4.966000000    -3.562000000
C    -4.821000000     5.452000000    -2.164000000
H    -5.580000000     5.656000000    -1.414000000
C    -3.457000000     5.468000000    -1.779000000
C    -2.496000000     5.197000000    -2.758000000
H    -1.444000000     5.083000000    -2.510000000
C     0.780000000     2.458000000    -1.526000000
H     1.182000000     2.864000000    -2.450000000
C     0.356000000     1.108000000    -1.462000000
H     0.388000000     0.405000000    -2.290000000
C    -0.060000000     0.599000000    -0.231000000
H    -0.322000000    -0.450000000    -0.216000000
C    -0.105000000     1.406000000     0.903000000
H    -0.504000000     0.863000000     1.756000000
C     0.331000000     2.754000000     0.872000000
H     0.347000000     3.382000000     1.759000000
C     0.862000000     3.242000000    -0.346000000
C     1.562000000     4.541000000    -0.391000000
O     2.249000000     4.816000000     0.617000000
O     1.437000000     5.317000000    -1.312000000
O    -0.520000000     6.932000000    -0.306000000
H     0.122000000     6.256000000    -0.522000000
H    -1.367000000     6.527000000    -0.492000000
O    -1.245000000     9.345000000    -1.951000000
H    -0.901000000     8.687000000    -1.347000000
H    -0.747000000     9.213000000    -2.757000000
O     6.798000000     4.949000000     3.539000000
H     7.464000000     5.546000000     3.878000000
H     6.120000000     5.524000000     3.182000000
O     5.026000000     7.802000000     0.092000000
H     4.190000000     7.531000000    -0.289000000
H     5.417000000     8.373000000    -0.570000000
O     1.587000000     9.368000000     0.268000000
H     2.315000000     9.910000000    -0.037000000
H     1.655000000     8.564000000    -0.246000000
O     3.578000000     4.807000000    -3.316000000
H     3.313000000     5.296000000    -4.095000000
H     2.932000000     5.047000000    -2.651000000
O     7.143000000     3.150000000     1.593000000
H     6.457000000     3.489000000     1.019000000
H     7.097000000     3.702000000     2.374000000
O     1.215000000     7.642000000     5.053000000
H     1.440000000     7.085000000     4.308000000
H     0.898000000     8.455000000     4.658000000
O     2.662000000     7.511000000    -1.362000000
H     2.406000000     6.601000000    -1.209000000
H     1.899000000     7.907000000    -1.782000000
O     4.919000000     4.396000000     0.279000000
H     5.313000000     5.001000000     0.908000000
H     3.976000000     4.489000000     0.417000000
O     4.550000000     8.175000000    -3.421000000
H     3.929000000     7.987000000    -2.717000000
H     5.403000000     8.201000000    -2.988000000
O     2.768000000     6.020000000    -5.699000000
H     1.897000000     6.199000000    -5.344000000
H     2.904000000     6.703000000    -6.357000000
O     0.180000000     6.652000000    -5.189000000
H    -0.246000000     7.128000000    -5.902000000
H    -0.540000000     6.375000000    -4.622000000
O     4.269000000     5.742000000     5.550000000
H     3.676000000     5.281000000     4.956000000
H     4.807000000     6.288000000     4.977000000
O     1.214000000     8.915000000    -3.544000000
H     1.106000000     8.199000000    -4.171000000
H     1.757000000     9.556000000    -4.004000000
O     2.255000000     6.637000000     2.507000000
H     2.028000000     7.437000000     2.033000000
H     2.040000000     5.930000000     1.899000000
O     4.949000000     6.964000000     2.728000000
H     4.005000000     6.953000000     2.569000000
H     5.329000000     7.251000000     1.898000000
O     5.839000000     4.198000000    -2.191000000
H     5.182000000     4.578000000    -2.775000000
H     5.455000000     4.272000000    -1.318000000
O    -0.914000000    10.528000000     0.565000000
H    -1.035000000    10.533000000    -0.384000000
H    -0.219000000     9.887000000     0.715000000
