215
-1472.07067
C     2.708000000    -0.981000000     4.304000000
H     3.151000000    -1.894000000     3.912000000
C     1.331000000    -0.770000000     4.218000000
C     0.850000000     0.524000000     4.577000000
H    -0.203000000     0.791000000     4.582000000
C     0.377000000    -1.756000000     3.747000000
O     0.919000000    -3.137000000     3.839000000
H     0.204000000    -1.465000000     2.701000000
O    -0.919000000    -1.664000000     4.341000000
C    -2.030000000    -1.892000000     3.617000000
C    -2.822000000    -0.775000000     3.423000000
H    -2.646000000     0.151000000     3.964000000
C    -3.804000000    -0.737000000     2.499000000
O    -4.477000000     0.512000000     2.325000000
C    -4.196000000    -1.863000000     1.759000000
C    -5.362000000    -1.854000000     0.778000000
H    -5.898000000    -2.804000000     0.821000000
C    -4.884000000    -1.340000000    -0.603000000
C    -4.378000000    -2.284000000    -1.531000000
H    -4.290000000    -3.335000000    -1.267000000
H    -6.118000000    -1.164000000     1.157000000
C    -3.509000000    -3.048000000     1.999000000
H    -3.741000000    -3.984000000     1.497000000
C    -2.430000000    -3.042000000     2.918000000
C    -1.642000000    -4.327000000     3.076000000
H    -2.279000000    -5.154000000     2.754000000
H    -1.414000000    -4.483000000     4.133000000
C    -0.406000000    -4.407000000     2.221000000
C    -0.473000000    -4.916000000     0.924000000
H    -1.390000000    -5.370000000     0.557000000
C     0.784000000    -3.807000000     2.615000000
C     1.908000000    -3.764000000     1.765000000
H     2.770000000    -3.171000000     2.061000000
C     1.878000000    -4.303000000     0.479000000
O     2.948000000    -3.948000000    -0.351000000
C     2.745000000    -2.797000000    -1.152000000
C     3.946000000    -1.958000000    -1.096000000
C     3.985000000    -0.902000000    -1.985000000
H     3.230000000    -0.708000000    -2.743000000
C     4.936000000    -2.039000000    -0.146000000
H     4.865000000    -2.811000000     0.617000000
O     2.363000000    -3.242000000    -2.484000000
H     1.921000000    -2.199000000    -0.734000000
C     0.687000000    -4.890000000     0.027000000
C     0.551000000    -5.369000000    -1.400000000
H    -0.289000000    -6.066000000    -1.428000000
H     1.439000000    -5.798000000    -1.868000000
C     0.100000000    -4.280000000    -2.369000000
C    -1.265000000    -4.146000000    -2.597000000
H    -2.058000000    -4.765000000    -2.187000000
C     0.997000000    -3.330000000    -2.865000000
C     0.496000000    -2.333000000    -3.647000000
H     1.100000000    -1.498000000    -3.994000000
C    -0.835000000    -2.235000000    -4.006000000
O    -1.218000000    -1.195000000    -4.835000000
C    -1.776000000     0.015000000    -4.231000000
C    -1.160000000     1.288000000    -4.889000000
C     0.153000000     1.320000000    -5.295000000
H     0.705000000     0.386000000    -5.373000000
C    -1.806000000     2.538000000    -4.808000000
H    -2.807000000     2.468000000    -4.391000000
O    -3.166000000    -0.006000000    -4.209000000
H    -1.545000000     0.034000000    -3.155000000
C    -1.731000000    -3.122000000    -3.450000000
C    -3.208000000    -2.924000000    -3.614000000
H    -3.872000000    -3.789000000    -3.547000000
H    -3.375000000    -2.488000000    -4.601000000
C    -3.824000000    -1.871000000    -2.726000000
C    -3.873000000    -0.486000000    -3.075000000
C    -4.320000000     0.483000000    -2.168000000
H    -4.254000000     1.553000000    -2.351000000
C    -4.887000000     0.064000000    -0.927000000
O    -5.082000000     1.041000000     0.097000000
C    -4.024000000     1.155000000     1.084000000
H    -3.176000000     0.541000000     0.748000000
C    -3.600000000     2.600000000     1.400000000
C    -3.536000000     3.132000000     2.664000000
H    -3.833000000     2.504000000     3.499000000
C    -3.380000000     3.511000000     0.360000000
H    -3.468000000     3.185000000    -0.674000000
C    -2.862000000     4.779000000     0.607000000
O    -2.464000000     5.577000000    -0.405000000
C    -2.687000000     5.232000000     1.903000000
H    -2.248000000     6.220000000     2.014000000
C    -3.040000000     4.374000000     2.942000000
O    -2.872000000     4.868000000     4.221000000
C    -2.025000000     4.269000000     5.138000000
C    -0.781000000     3.762000000     4.740000000
H    -0.470000000     3.789000000     3.699000000
C    -2.397000000     4.253000000     6.445000000
H    -3.303000000     4.702000000     6.844000000
C    -1.535000000     3.743000000     7.403000000
H    -1.805000000     3.857000000     8.450000000
C    -0.410000000     3.021000000     7.033000000
H     0.348000000     2.657000000     7.721000000
C    -0.008000000     3.116000000     5.681000000
O     1.270000000     2.764000000     5.384000000
C     1.680000000     1.506000000     5.050000000
C     3.025000000     1.261000000     5.162000000
H     3.657000000     2.036000000     5.589000000
C     3.539000000     0.009000000     4.770000000
O     4.925000000    -0.242000000     4.908000000
C     5.695000000    -1.118000000     4.192000000
C     5.951000000    -0.812000000     2.875000000
H     5.411000000    -0.015000000     2.370000000
C     6.282000000    -2.197000000     4.846000000
H     6.034000000    -2.490000000     5.863000000
C     7.212000000    -2.961000000     4.096000000
H     7.692000000    -3.844000000     4.510000000
C     7.457000000    -2.705000000     2.744000000
H     8.239000000    -3.311000000     2.292000000
C     6.824000000    -1.632000000     2.089000000
O     7.025000000    -1.305000000     0.768000000
C     6.013000000    -1.184000000    -0.122000000
C     6.114000000    -0.154000000    -1.059000000
H     6.929000000     0.555000000    -0.936000000
C     5.157000000    -0.025000000    -2.033000000
O     5.136000000     1.020000000    -2.902000000
C     4.632000000     0.892000000    -4.142000000
C     3.724000000     1.773000000    -4.658000000
H     3.602000000     2.640000000    -4.014000000
C     4.967000000    -0.203000000    -4.966000000
H     5.743000000    -0.949000000    -4.818000000
C     4.440000000    -0.395000000    -6.252000000
H     4.868000000    -1.161000000    -6.894000000
C     3.469000000     0.524000000    -6.670000000
H     2.991000000     0.365000000    -7.633000000
C     3.031000000     1.576000000    -5.855000000
O     2.085000000     2.498000000    -6.216000000
C     0.789000000     2.511000000    -5.737000000
C     0.125000000     3.750000000    -5.695000000
H     0.604000000     4.694000000    -5.943000000
C    -1.189000000     3.775000000    -5.167000000
O    -1.894000000     4.977000000    -5.108000000
C    -2.712000000     5.292000000    -4.057000000
C    -4.086000000     5.451000000    -4.309000000
H    -4.543000000     5.529000000    -5.293000000
C    -4.932000000     5.484000000    -3.224000000
H    -6.007000000     5.455000000    -3.381000000
C    -4.436000000     5.518000000    -1.909000000
H    -5.135000000     5.441000000    -1.080000000
C    -3.047000000     5.514000000    -1.703000000
C    -2.147000000     5.291000000    -2.784000000
H    -1.066000000     5.265000000    -2.675000000
C     1.381000000     1.920000000    -1.012000000
H     2.027000000     2.255000000    -1.820000000
C     0.753000000     0.736000000    -1.163000000
H     1.036000000     0.248000000    -2.091000000
C    -0.057000000     0.189000000    -0.155000000
H    -0.624000000    -0.777000000    -0.325000000
C    -0.168000000     0.915000000     1.039000000
H    -0.724000000     0.560000000     1.903000000
C     0.442000000     2.138000000     1.193000000
H     0.287000000     2.716000000     2.100000000
C     1.107000000     2.718000000     0.115000000
C     1.825000000     4.006000000     0.352000000
O     1.357000000     4.741000000     1.216000000
O     2.798000000     4.333000000    -0.341000000
O     0.086000000     7.085000000     0.151000000
H     0.531000000     6.248000000     0.284000000
H    -0.786000000     6.846000000    -0.163000000
O     5.491000000     2.925000000     3.408000000
H     5.551000000     3.311000000     2.534000000
H     4.848000000     3.467000000     3.866000000
O     3.221000000     7.149000000     3.356000000
H     2.327000000     7.468000000     3.482000000
H     3.370000000     7.220000000     2.413000000
O     0.958000000     9.274000000     1.544000000
H     1.628000000     9.686000000     0.999000000
H     0.526000000     8.648000000     0.963000000
O     4.369000000     4.443000000    -2.406000000
H     4.042000000     5.322000000    -2.597000000
H     3.752000000     4.092000000    -1.764000000
O     8.429000000     2.839000000     0.325000000
H     7.473000000     2.888000000     0.334000000
H     8.675000000     3.103000000    -0.562000000
O     6.212000000     6.859000000     1.582000000
H     5.299000000     6.807000000     1.867000000
H     6.165000000     6.842000000     0.626000000
O     3.556000000     6.804000000     0.552000000
H     3.145000000     5.963000000     0.349000000
H     3.387000000     7.345000000    -0.219000000
O     5.478000000     3.350000000     0.243000000
H     4.598000000     3.673000000     0.050000000
H     5.404000000     2.398000000     0.174000000
O    -0.139000000     7.329000000     5.849000000
H    -0.019000000     8.188000000     5.443000000
H     0.063000000     6.705000000     5.152000000
O     3.693000000     5.064000000    -5.679000000
H     4.015000000     5.575000000    -4.935000000
H     2.746000000     5.021000000    -5.547000000
O     3.059000000     8.939000000    -1.255000000
H     2.222000000     9.054000000    -1.704000000
H     3.166000000     9.738000000    -0.739000000
O     3.693000000     7.156000000    -3.448000000
H     3.656000000     7.762000000    -2.708000000
H     4.170000000     7.634000000    -4.126000000
O     6.533000000     6.835000000    -1.129000000
H     7.471000000     6.824000000    -1.321000000
H     6.165000000     6.154000000    -1.692000000
O     3.462000000     4.408000000     4.426000000
H     3.352000000     5.252000000     3.988000000
H     2.574000000     4.058000000     4.495000000
O     0.036000000     8.904000000    -2.355000000
H     0.555000000     8.141000000    -2.607000000
H    -0.403000000     9.173000000    -3.162000000
O     0.462000000     6.427000000     3.123000000
H    -0.191000000     6.710000000     2.482000000
H     0.929000000     5.712000000     2.691000000
O     7.108000000     3.025000000    -2.388000000
H     6.525000000     3.784000000    -2.416000000
H     6.635000000     2.342000000    -2.864000000
O     5.246000000     4.513000000     6.426000000
H     6.127000000     4.696000000     6.100000000
H     4.682000000     4.606000000     5.659000000
