215
-1447.11202
C     2.197000000    -1.883000000     4.899000000
H     2.495000000    -2.839000000     4.477000000
C     0.884000000    -1.410000000     4.586000000
C     0.608000000    -0.075000000     4.980000000
H    -0.366000000     0.364000000     4.779000000
C     0.012000000    -2.280000000     3.774000000
O     0.520000000    -3.618000000     3.676000000
H     0.041000000    -1.831000000     2.770000000
O    -1.360000000    -2.259000000     4.306000000
C    -2.388000000    -2.054000000     3.322000000
C    -3.005000000    -0.831000000     3.294000000
H    -2.541000000    -0.090000000     3.940000000
C    -3.962000000    -0.636000000     2.308000000
O    -4.380000000     0.673000000     2.130000000
C    -4.328000000    -1.675000000     1.387000000
C    -5.298000000    -1.544000000     0.251000000
H    -5.861000000    -2.456000000     0.042000000
C    -4.606000000    -1.046000000    -1.009000000
C    -4.263000000    -1.935000000    -1.995000000
H    -4.324000000    -3.006000000    -1.817000000
H    -6.074000000    -0.899000000     0.668000000
C    -3.592000000    -2.885000000     1.392000000
H    -3.819000000    -3.613000000     0.619000000
C    -2.719000000    -3.101000000     2.437000000
C    -2.036000000    -4.475000000     2.618000000
H    -2.639000000    -5.280000000     2.194000000
H    -1.865000000    -4.686000000     3.676000000
C    -0.788000000    -4.473000000     1.832000000
C    -0.785000000    -4.843000000     0.508000000
H    -1.662000000    -5.231000000    -0.004000000
C     0.461000000    -4.169000000     2.400000000
C     1.643000000    -4.051000000     1.646000000
H     2.539000000    -3.737000000     2.175000000
C     1.579000000    -4.308000000     0.318000000
O     2.679000000    -4.045000000    -0.544000000
C     2.588000000    -2.849000000    -1.307000000
C     3.820000000    -1.899000000    -1.089000000
C     4.049000000    -0.936000000    -1.978000000
H     3.445000000    -0.814000000    -2.874000000
C     4.612000000    -1.882000000     0.066000000
H     4.412000000    -2.626000000     0.833000000
O     2.391000000    -3.252000000    -2.701000000
H     1.773000000    -2.279000000    -0.838000000
C     0.407000000    -4.747000000    -0.265000000
C     0.420000000    -5.119000000    -1.785000000
H    -0.278000000    -5.928000000    -2.007000000
H     1.395000000    -5.581000000    -1.955000000
C     0.110000000    -3.981000000    -2.713000000
C    -1.196000000    -3.788000000    -3.145000000
H    -1.922000000    -4.559000000    -2.901000000
C     1.075000000    -3.089000000    -3.083000000
C     0.798000000    -1.931000000    -3.890000000
H     1.483000000    -1.158000000    -4.231000000
C    -0.504000000    -1.833000000    -4.313000000
O    -0.752000000    -0.678000000    -5.012000000
C    -1.409000000     0.466000000    -4.350000000
C    -0.783000000     1.794000000    -4.698000000
C     0.506000000     1.843000000    -5.157000000
H     1.020000000     0.902000000    -5.337000000
C    -1.419000000     3.004000000    -4.498000000
H    -2.446000000     2.937000000    -4.149000000
O    -2.851000000     0.385000000    -4.513000000
H    -1.234000000     0.423000000    -3.265000000
C    -1.561000000    -2.666000000    -3.909000000
C    -3.066000000    -2.496000000    -4.206000000
H    -3.593000000    -3.451000000    -4.152000000
H    -3.089000000    -2.030000000    -5.194000000
C    -3.653000000    -1.485000000    -3.207000000
C    -3.535000000    -0.098000000    -3.408000000
C    -3.915000000     0.805000000    -2.394000000
H    -3.633000000     1.851000000    -2.490000000
C    -4.424000000     0.352000000    -1.123000000
O    -4.690000000     1.223000000    -0.088000000
C    -3.759000000     1.355000000     0.999000000
H    -2.892000000     0.803000000     0.608000000
C    -3.385000000     2.740000000     1.435000000
C    -3.106000000     3.045000000     2.810000000
H    -3.173000000     2.247000000     3.545000000
C    -3.151000000     3.687000000     0.504000000
H    -3.376000000     3.443000000    -0.531000000
C    -2.709000000     4.928000000     0.853000000
O    -2.648000000     5.912000000    -0.131000000
C    -2.431000000     5.266000000     2.164000000
H    -2.012000000     6.221000000     2.469000000
C    -2.593000000     4.276000000     3.128000000
O    -2.389000000     4.667000000     4.457000000
C    -1.667000000     3.889000000     5.395000000
C    -0.379000000     3.476000000     5.226000000
H     0.139000000     3.799000000     4.327000000
C    -2.331000000     3.666000000     6.578000000
H    -3.355000000     3.994000000     6.737000000
C    -1.741000000     2.808000000     7.547000000
H    -2.332000000     2.450000000     8.386000000
C    -0.416000000     2.313000000     7.400000000
H     0.036000000     1.608000000     8.092000000
C     0.211000000     2.667000000     6.202000000
O     1.448000000     1.974000000     5.980000000
C     1.608000000     0.648000000     5.573000000
C     2.887000000     0.175000000     5.859000000
H     3.564000000     0.809000000     6.426000000
C     3.100000000    -1.120000000     5.513000000
O     4.307000000    -1.718000000     5.758000000
C     5.126000000    -2.167000000     4.700000000
C     5.310000000    -1.308000000     3.573000000
H     4.679000000    -0.423000000     3.573000000
C     5.831000000    -3.378000000     4.864000000
H     5.624000000    -3.968000000     5.753000000
C     6.700000000    -3.700000000     3.854000000
H     7.154000000    -4.686000000     3.791000000
C     6.922000000    -2.817000000     2.742000000
H     7.645000000    -3.022000000     1.956000000
C     6.152000000    -1.696000000     2.518000000
O     6.252000000    -0.879000000     1.410000000
C     5.588000000    -0.940000000     0.248000000
C     5.809000000    -0.002000000    -0.775000000
H     6.520000000     0.801000000    -0.595000000
C     5.089000000    -0.048000000    -1.962000000
O     5.245000000     0.952000000    -2.859000000
C     4.739000000     0.978000000    -4.129000000
C     3.771000000     1.970000000    -4.376000000
H     3.313000000     2.562000000    -3.588000000
C     5.280000000     0.122000000    -5.044000000
H     5.947000000    -0.697000000    -4.787000000
C     4.828000000     0.254000000    -6.366000000
H     5.132000000    -0.486000000    -7.101000000
C     3.852000000     1.202000000    -6.676000000
H     3.523000000     1.345000000    -7.702000000
C     3.379000000     2.050000000    -5.717000000
O     2.380000000     2.999000000    -6.105000000
C     1.158000000     2.979000000    -5.467000000
C     0.491000000     4.213000000    -5.250000000
H     1.095000000     5.080000000    -5.507000000
C    -0.811000000     4.241000000    -4.837000000
O    -1.545000000     5.409000000    -4.822000000
C    -2.533000000     5.583000000    -3.881000000
C    -3.833000000     5.843000000    -4.225000000
H    -4.183000000     5.923000000    -5.251000000
C    -4.791000000     6.041000000    -3.173000000
H    -5.823000000     6.337000000    -3.347000000
C    -4.384000000     5.997000000    -1.854000000
H    -5.167000000     5.990000000    -1.100000000
C    -3.017000000     5.882000000    -1.519000000
C    -2.140000000     5.523000000    -2.554000000
H    -1.094000000     5.286000000    -2.375000000
C     1.136000000     2.787000000    -1.235000000
H     1.420000000     3.127000000    -2.228000000
C     0.949000000     1.393000000    -1.128000000
H     1.095000000     0.758000000    -1.999000000
C     0.354000000     0.858000000     0.053000000
H     0.131000000    -0.145000000     0.223000000
C     0.215000000     1.762000000     1.138000000
H    -0.109000000     1.413000000     2.115000000
C     0.598000000     3.105000000     1.055000000
H     0.583000000     3.661000000     1.988000000
C     1.007000000     3.672000000    -0.142000000
C     1.503000000     5.088000000    -0.193000000
O     1.543000000     5.737000000     0.816000000
O     1.811000000     5.577000000    -1.242000000
O    -0.226000000     7.600000000     0.349000000
H     0.411000000     6.956000000     0.660000000
H    -0.993000000     7.081000000     0.108000000
O     6.370000000     6.952000000    -0.960000000
H     6.488000000     6.002000000    -0.938000000
H     5.426000000     7.078000000    -0.863000000
O     0.887000000     7.153000000    -3.219000000
H     0.593000000     7.903000000    -2.702000000
H     1.282000000     6.561000000    -2.579000000
O     5.208000000     9.492000000     2.543000000
H     5.190000000     8.781000000     1.902000000
H     4.344000000     9.898000000     2.474000000
O     4.693000000     2.158000000     1.723000000
H     3.949000000     1.745000000     2.162000000
H     5.270000000     2.432000000     2.436000000
O     1.856000000     5.685000000     5.326000000
H     2.181000000     4.860000000     5.686000000
H     2.267000000     5.748000000     4.464000000
O     3.519000000     7.506000000     0.274000000
H     2.890000000     8.211000000     0.121000000
H     3.011000000     6.703000000     0.156000000
O     2.563000000     0.708000000     2.421000000
H     1.729000000     1.176000000     2.376000000
H     2.485000000     0.017000000     1.763000000
O     7.218000000     5.737000000    -3.480000000
H     6.656000000     6.222000000    -2.875000000
H     7.999000000     6.282000000    -3.570000000
O     7.278000000     4.383000000     0.411000000
H     6.585000000     3.964000000    -0.100000000
H     7.972000000     4.558000000    -0.225000000
O     5.203000000     9.316000000    -2.711000000
H     4.350000000     9.639000000    -2.423000000
H     5.834000000     9.911000000    -2.306000000
O     4.521000000     7.140000000    -4.527000000
H     4.233000000     6.313000000    -4.142000000
H     4.830000000     7.657000000    -3.783000000
O     2.255000000     7.340000000    -5.844000000
H     3.166000000     7.379000000    -5.553000000
H     1.743000000     7.462000000    -5.045000000
O     5.038000000     3.199000000    -0.804000000
H     4.777000000     2.817000000     0.034000000
H     4.902000000     2.497000000    -1.440000000
O     0.312000000     9.272000000    -1.809000000
H     0.246000000     8.825000000    -0.965000000
H     0.986000000     9.939000000    -1.675000000
O     3.354000000     5.043000000     2.555000000
H     2.624000000     5.484000000     2.122000000
H     3.652000000     4.392000000     1.920000000
O     5.732000000     6.042000000     3.856000000
H     4.919000000     5.761000000     3.435000000
H     6.167000000     6.583000000     3.198000000
O     3.901000000     4.860000000    -2.823000000
H     3.139000000     5.188000000    -2.346000000
H     4.488000000     4.533000000    -2.141000000
O    -0.211000000    10.292000000     1.705000000
H    -0.130000000    11.090000000     1.183000000
H    -0.326000000     9.594000000     1.059000000
