215
-1426.55113
C    -5.164000000    -0.191000000    -0.503000000
H    -4.760000000    -0.281000000    -1.508000000
C    -4.929000000     0.986000000     0.236000000
C    -5.186000000     0.887000000     1.607000000
H    -5.021000000     1.766000000     2.225000000
C    -4.004000000     2.069000000    -0.420000000
O    -4.220000000     2.379000000    -1.811000000
H    -2.974000000     1.684000000    -0.386000000
O    -4.000000000     3.225000000     0.451000000
C    -2.743000000     3.731000000     0.750000000
C    -2.255000000     3.532000000     1.988000000
H    -2.850000000     3.076000000     2.776000000
C    -0.940000000     3.731000000     2.323000000
O    -0.508000000     3.311000000     3.535000000
C    -0.217000000     4.521000000     1.472000000
C     1.173000000     5.011000000     1.848000000
H     1.315000000     5.861000000     1.177000000
C     2.187000000     4.015000000     1.427000000
C     2.751000000     4.029000000     0.147000000
H     2.388000000     4.777000000    -0.553000000
H     1.198000000     5.272000000     2.908000000
C    -0.729000000     4.848000000     0.172000000
H    -0.124000000     5.536000000    -0.413000000
C    -1.964000000     4.348000000    -0.181000000
C    -2.539000000     4.722000000    -1.534000000
H    -2.076000000     5.671000000    -1.812000000
H    -3.618000000     4.842000000    -1.418000000
C    -2.284000000     3.621000000    -2.539000000
C    -1.067000000     3.647000000    -3.246000000
H    -0.354000000     4.443000000    -3.048000000
C    -3.124000000     2.499000000    -2.619000000
C    -2.727000000     1.366000000    -3.363000000
H    -3.248000000     0.424000000    -3.212000000
C    -1.528000000     1.438000000    -4.079000000
O    -1.204000000     0.252000000    -4.721000000
C    -0.062000000    -0.487000000    -4.214000000
C    -0.387000000    -1.952000000    -4.209000000
C     0.569000000    -2.875000000    -4.595000000
H     1.518000000    -2.476000000    -4.945000000
C    -1.698000000    -2.430000000    -3.974000000
H    -2.476000000    -1.776000000    -3.588000000
O     1.041000000    -0.191000000    -5.068000000
H     0.160000000    -0.205000000    -3.174000000
C    -0.714000000     2.597000000    -4.118000000
C     0.524000000     2.612000000    -4.998000000
H     0.771000000     3.658000000    -5.190000000
H     0.378000000     2.139000000    -5.972000000
C     1.689000000     1.995000000    -4.305000000
C     2.493000000     2.747000000    -3.501000000
H     2.306000000     3.817000000    -3.510000000
C     1.896000000     0.602000000    -4.411000000
C     2.851000000     0.024000000    -3.633000000
H     3.030000000    -1.045000000    -3.719000000
C     3.580000000     0.819000000    -2.735000000
O     4.402000000     0.126000000    -1.905000000
C     4.103000000    -0.075000000    -0.581000000
C     4.434000000    -1.482000000    -0.094000000
C     4.511000000    -2.555000000    -0.949000000
H     4.451000000    -2.351000000    -2.016000000
C     4.405000000    -1.656000000     1.279000000
H     4.302000000    -0.787000000     1.923000000
O     4.720000000     0.910000000     0.250000000
H     3.042000000    -0.079000000    -0.290000000
C     3.444000000     2.164000000    -2.619000000
C     4.213000000     3.084000000    -1.647000000
H     4.211000000     4.148000000    -1.891000000
H     5.264000000     2.795000000    -1.592000000
C     3.659000000     3.031000000    -0.250000000
C     3.925000000     1.974000000     0.664000000
C     3.381000000     1.995000000     1.934000000
H     3.623000000     1.162000000     2.589000000
C     2.434000000     2.956000000     2.225000000
O     1.815000000     2.817000000     3.434000000
C     0.500000000     2.262000000     3.480000000
H     0.266000000     1.567000000     2.659000000
C     0.358000000     1.315000000     4.646000000
C    -0.885000000     0.843000000     4.966000000
H    -1.772000000     1.179000000     4.434000000
C     1.439000000     0.826000000     5.418000000
H     2.466000000     1.170000000     5.330000000
C     1.260000000    -0.246000000     6.288000000
O     2.360000000    -0.814000000     6.854000000
C    -0.013000000    -0.667000000     6.618000000
H    -0.210000000    -1.553000000     7.214000000
C    -1.090000000    -0.095000000     5.943000000
O    -2.396000000    -0.551000000     6.239000000
C    -3.575000000     0.111000000     5.874000000
C    -4.381000000    -0.325000000     4.843000000
H    -4.112000000    -1.228000000     4.301000000
C    -3.868000000     1.308000000     6.507000000
H    -3.225000000     1.649000000     7.314000000
C    -5.015000000     2.046000000     6.176000000
H    -5.344000000     2.912000000     6.745000000
C    -5.764000000     1.593000000     5.049000000
H    -6.729000000     2.025000000     4.798000000
C    -5.417000000     0.448000000     4.361000000
O    -6.266000000    -0.100000000     3.396000000
C    -5.835000000    -0.178000000     2.165000000
C    -6.297000000    -1.202000000     1.367000000
H    -6.777000000    -2.042000000     1.863000000
C    -5.774000000    -1.313000000     0.112000000
O    -5.958000000    -2.508000000    -0.517000000
C    -5.713000000    -2.805000000    -1.808000000
C    -4.657000000    -3.615000000    -2.152000000
H    -4.070000000    -4.101000000    -1.378000000
C    -6.482000000    -2.184000000    -2.850000000
H    -7.184000000    -1.468000000    -2.432000000
C    -6.041000000    -2.285000000    -4.186000000
H    -6.523000000    -1.726000000    -4.984000000
C    -4.933000000    -3.116000000    -4.464000000
H    -4.499000000    -3.172000000    -5.458000000
C    -4.280000000    -3.795000000    -3.462000000
O    -3.091000000    -4.472000000    -3.766000000
C    -1.926000000    -3.860000000    -4.080000000
C    -0.899000000    -4.683000000    -4.388000000
H    -1.096000000    -5.745000000    -4.512000000
C     0.356000000    -4.213000000    -4.656000000
O     1.392000000    -5.173000000    -4.838000000
C     2.649000000    -4.902000000    -4.505000000
C     2.894000000    -4.819000000    -3.174000000
H     2.056000000    -4.707000000    -2.492000000
C     3.664000000    -5.048000000    -5.416000000
H     3.486000000    -5.304000000    -6.458000000
C     4.990000000    -5.078000000    -4.982000000
H     5.784000000    -5.265000000    -5.700000000
C     5.230000000    -5.017000000    -3.595000000
H     6.259000000    -5.012000000    -3.244000000
C     4.179000000    -4.877000000    -2.681000000
O     4.480000000    -4.926000000    -1.337000000
C     4.564000000    -3.831000000    -0.482000000
C     4.466000000    -4.124000000     0.885000000
H     4.488000000    -5.137000000     1.279000000
C     4.411000000    -2.997000000     1.754000000
O     4.232000000    -3.241000000     3.098000000
C     4.376000000    -2.336000000     4.133000000
C     5.606000000    -1.870000000     4.572000000
H     6.338000000    -2.121000000     3.808000000
C     5.779000000    -1.123000000     5.769000000
H     6.770000000    -0.819000000     6.098000000
C     4.666000000    -0.734000000     6.477000000
H     4.798000000    -0.025000000     7.291000000
C     3.437000000    -1.253000000     6.126000000
C     3.288000000    -1.986000000     4.930000000
H     2.313000000    -2.315000000     4.581000000
C    -0.498000000    -2.812000000    -0.109000000
H    -0.088000000    -3.771000000    -0.417000000
C     0.151000000    -1.568000000    -0.283000000
H     1.096000000    -1.445000000    -0.807000000
C    -0.384000000    -0.402000000     0.288000000
H     0.117000000     0.546000000     0.259000000
C    -1.654000000    -0.437000000     0.799000000
H    -2.169000000     0.418000000     1.231000000
C    -2.352000000    -1.624000000     0.949000000
H    -3.370000000    -1.659000000     1.328000000
C    -1.768000000    -2.794000000     0.570000000
C    -2.404000000    -4.115000000     0.860000000
O    -3.434000000    -4.183000000     1.512000000
O    -1.837000000    -5.156000000     0.651000000
O    -6.928000000    -5.526000000    -1.092000000
H    -6.956000000    -4.873000000    -0.393000000
H    -7.195000000    -6.342000000    -0.668000000
O    -4.502000000    -9.266000000     4.305000000
H    -4.910000000    -8.459000000     4.618000000
H    -3.608000000    -9.010000000     4.078000000
O    -5.571000000    -5.011000000     2.844000000
H    -6.191000000    -4.317000000     2.621000000
H    -4.880000000    -4.937000000     2.186000000
O    -5.270000000    -6.748000000     4.942000000
H    -5.206000000    -6.118000000     4.224000000
H    -6.035000000    -6.464000000     5.442000000
O    -8.189000000    -4.275000000     1.293000000
H    -8.519000000    -5.139000000     1.539000000
H    -8.955000000    -3.703000000     1.341000000
O    -1.251000000    -6.649000000    -1.683000000
H    -1.571000000    -6.199000000    -0.901000000
H    -1.958000000    -6.553000000    -2.321000000
O    -3.394000000    -7.436000000     0.886000000
H    -2.945000000    -6.592000000     0.934000000
H    -3.334000000    -7.688000000    -0.036000000
O     1.151000000    -3.565000000     2.944000000
H     0.534000000    -2.840000000     2.842000000
H     1.683000000    -3.540000000     2.148000000
O     1.136000000    -7.237000000    -0.860000000
H     1.553000000    -7.493000000    -1.682000000
H     0.319000000    -6.814000000    -1.127000000
O    -3.929000000    -3.326000000     6.927000000
H    -4.402000000    -2.891000000     6.218000000
H    -4.519000000    -3.269000000     7.679000000
O    -2.284000000    -8.120000000     3.200000000
H    -2.295000000    -8.377000000     2.278000000
H    -2.020000000    -7.200000000     3.189000000
O    -0.055000000    -6.096000000     2.607000000
H     0.340000000    -5.283000000     2.919000000
H    -0.623000000    -5.825000000     1.885000000
O    -4.218000000    -6.998000000    -1.800000000
H    -4.739000000    -6.996000000    -2.603000000
H    -4.729000000    -6.476000000    -1.182000000
O    -2.184000000    -4.523000000     4.105000000
H    -3.109000000    -4.643000000     4.321000000
H    -2.186000000    -4.243000000     3.190000000
O    -6.018000000    -2.594000000     5.485000000
H    -6.595000000    -2.841000000     4.762000000
H    -6.497000000    -2.851000000     6.273000000
O     0.882000000    -7.238000000     4.958000000
H     0.426000000    -6.868000000     4.202000000
H     0.370000000    -8.012000000     5.192000000
O    -1.035000000    -9.156000000    -2.507000000
H    -0.696000000    -9.079000000    -3.399000000
H    -0.795000000    -8.330000000    -2.087000000
O    -0.863000000    -5.754000000     6.411000000
H    -0.197000000    -6.142000000     5.843000000
H    -1.439000000    -5.277000000     5.814000000
O     1.450000000    -8.176000000     1.531000000
H     0.897000000    -7.498000000     1.918000000
H     1.372000000    -8.040000000     0.587000000
