215
-1436.04214
C     2.289000000    -0.761000000     4.621000000
H     2.957000000    -1.494000000     4.175000000
C     0.879000000    -0.944000000     4.690000000
C     0.090000000    -0.070000000     5.434000000
H    -0.996000000    -0.110000000     5.430000000
C     0.269000000    -2.051000000     3.867000000
O     1.111000000    -3.196000000     3.727000000
H     0.121000000    -1.637000000     2.858000000
O    -1.071000000    -2.349000000     4.336000000
C    -2.113000000    -2.466000000     3.464000000
C    -2.998000000    -1.415000000     3.369000000
H    -2.839000000    -0.539000000     3.993000000
C    -3.944000000    -1.365000000     2.396000000
O    -4.662000000    -0.234000000     2.115000000
C    -3.964000000    -2.460000000     1.505000000
C    -4.995000000    -2.457000000     0.321000000
H    -5.226000000    -3.488000000     0.044000000
C    -4.399000000    -1.748000000    -0.902000000
C    -3.955000000    -2.520000000    -1.976000000
H    -3.930000000    -3.596000000    -1.826000000
H    -5.926000000    -1.937000000     0.555000000
C    -3.172000000    -3.628000000     1.658000000
H    -3.348000000    -4.536000000     1.087000000
C    -2.236000000    -3.602000000     2.703000000
C    -1.166000000    -4.683000000     2.872000000
H    -1.580000000    -5.666000000     2.639000000
H    -0.878000000    -4.810000000     3.917000000
C     0.093000000    -4.525000000     1.969000000
C     0.080000000    -4.883000000     0.566000000
H    -0.769000000    -5.444000000     0.185000000
C     1.123000000    -3.772000000     2.485000000
C     2.207000000    -3.409000000     1.637000000
H     2.987000000    -2.859000000     2.156000000
C     2.251000000    -3.873000000     0.297000000
O     3.206000000    -3.415000000    -0.543000000
C     2.929000000    -2.297000000    -1.400000000
C     4.006000000    -1.234000000    -1.297000000
C     4.162000000    -0.303000000    -2.395000000
H     3.458000000    -0.290000000    -3.224000000
C     4.777000000    -1.092000000    -0.176000000
H     4.704000000    -1.754000000     0.683000000
O     2.862000000    -2.729000000    -2.791000000
H     2.011000000    -1.885000000    -0.957000000
C     1.202000000    -4.568000000    -0.191000000
C     1.339000000    -5.003000000    -1.684000000
H     0.785000000    -5.937000000    -1.794000000
H     2.378000000    -5.208000000    -1.950000000
C     0.785000000    -3.960000000    -2.690000000
C    -0.588000000    -3.879000000    -2.927000000
H    -1.274000000    -4.469000000    -2.324000000
C     1.552000000    -2.940000000    -3.229000000
C     1.134000000    -2.011000000    -4.121000000
H     1.739000000    -1.324000000    -4.707000000
C    -0.210000000    -2.111000000    -4.463000000
O    -0.694000000    -1.068000000    -5.185000000
C    -1.149000000    -0.016000000    -4.387000000
C    -0.603000000     1.323000000    -4.838000000
C     0.589000000     1.422000000    -5.521000000
H     1.184000000     0.567000000    -5.832000000
C    -1.288000000     2.486000000    -4.499000000
H    -2.217000000     2.411000000    -3.941000000
O    -2.647000000     0.036000000    -4.307000000
H    -0.774000000    -0.127000000    -3.359000000
C    -1.110000000    -2.988000000    -3.830000000
C    -2.645000000    -2.994000000    -4.069000000
H    -2.940000000    -4.034000000    -3.912000000
H    -2.786000000    -2.665000000    -5.101000000
C    -3.188000000    -2.013000000    -2.993000000
C    -3.147000000    -0.544000000    -3.173000000
C    -3.658000000     0.237000000    -2.135000000
H    -3.722000000     1.319000000    -2.220000000
C    -4.274000000    -0.372000000    -1.024000000
O    -4.622000000     0.449000000     0.014000000
C    -3.950000000     0.634000000     1.239000000
H    -2.940000000     0.197000000     1.230000000
C    -3.779000000     2.124000000     1.597000000
C    -3.544000000     2.589000000     2.931000000
H    -3.497000000     1.830000000     3.707000000
C    -3.594000000     3.047000000     0.602000000
H    -3.707000000     2.718000000    -0.427000000
C    -3.371000000     4.393000000     0.942000000
O    -3.300000000     5.371000000    -0.051000000
C    -3.214000000     4.848000000     2.227000000
H    -2.954000000     5.895000000     2.360000000
C    -3.279000000     3.939000000     3.233000000
O    -3.158000000     4.383000000     4.526000000
C    -2.887000000     3.551000000     5.566000000
C    -1.614000000     3.014000000     5.667000000
H    -0.900000000     3.222000000     4.874000000
C    -3.773000000     3.216000000     6.559000000
H    -4.784000000     3.612000000     6.507000000
C    -3.380000000     2.607000000     7.747000000
H    -4.192000000     2.337000000     8.417000000
C    -2.106000000     2.097000000     7.842000000
H    -1.734000000     1.587000000     8.727000000
C    -1.216000000     2.368000000     6.790000000
O     0.114000000     2.005000000     6.867000000
C     0.721000000     1.076000000     6.016000000
C     2.027000000     1.343000000     5.851000000
H     2.477000000     2.182000000     6.375000000
C     2.787000000     0.482000000     5.059000000
O     4.042000000     0.912000000     4.756000000
C     5.011000000     0.063000000     4.218000000
C     5.244000000     0.240000000     2.850000000
H     4.680000000     0.957000000     2.260000000
C     5.831000000    -0.746000000     4.935000000
H     5.681000000    -0.930000000     5.996000000
C     6.936000000    -1.359000000     4.356000000
H     7.553000000    -2.093000000     4.868000000
C     7.207000000    -1.134000000     2.980000000
H     8.002000000    -1.724000000     2.532000000
C     6.291000000    -0.368000000     2.251000000
O     6.621000000    -0.014000000     0.916000000
C     5.645000000    -0.004000000    -0.090000000
C     5.724000000     0.913000000    -1.077000000
H     6.468000000     1.705000000    -1.034000000
C     5.067000000     0.719000000    -2.269000000
O     5.470000000     1.505000000    -3.267000000
C     4.967000000     1.343000000    -4.582000000
C     3.895000000     2.075000000    -4.967000000
H     3.495000000     2.806000000    -4.270000000
C     5.469000000     0.342000000    -5.429000000
H     6.304000000    -0.230000000    -5.033000000
C     4.929000000     0.089000000    -6.736000000
H     5.346000000    -0.717000000    -7.333000000
C     3.854000000     0.922000000    -7.106000000
H     3.536000000     0.854000000    -8.143000000
C     3.369000000     1.943000000    -6.257000000
O     2.282000000     2.678000000    -6.688000000
C     1.107000000     2.624000000    -5.956000000
C     0.387000000     3.807000000    -5.640000000
H     0.656000000     4.793000000    -6.008000000
C    -0.818000000     3.719000000    -4.849000000
O    -1.480000000     4.837000000    -4.383000000
C    -2.642000000     4.889000000    -3.557000000
C    -3.902000000     4.723000000    -4.128000000
H    -3.902000000     4.484000000    -5.188000000
C    -5.006000000     4.516000000    -3.329000000
H    -5.978000000     4.245000000    -3.734000000
C    -4.868000000     4.797000000    -1.936000000
H    -5.783000000     4.834000000    -1.349000000
C    -3.603000000     5.122000000    -1.399000000
C    -2.457000000     5.214000000    -2.192000000
H    -1.454000000     5.486000000    -1.873000000
C     0.706000000     2.324000000     2.054000000
H     1.235000000     2.452000000     2.995000000
C     0.413000000     1.026000000     1.687000000
H     0.823000000     0.189000000     2.247000000
C    -0.225000000     0.724000000     0.503000000
H    -0.311000000    -0.278000000     0.031000000
C    -0.730000000     1.785000000    -0.227000000
H    -1.220000000     1.539000000    -1.166000000
C    -0.428000000     3.118000000     0.112000000
H    -0.854000000     3.962000000    -0.425000000
C     0.304000000     3.389000000     1.254000000
C     0.575000000     4.851000000     1.555000000
O     0.348000000     5.730000000     0.785000000
O     1.413000000     5.059000000     2.388000000
O     1.827000000     9.697000000    -0.462000000
H     2.001000000     9.117000000    -1.203000000
H     1.378000000    10.450000000    -0.846000000
O     3.089000000     6.787000000     0.231000000
H     2.510000000     6.225000000     0.745000000
H     2.748000000     6.731000000    -0.662000000
O    -1.232000000     8.371000000     4.156000000
H    -0.376000000     8.286000000     4.574000000
H    -1.033000000     8.551000000     3.237000000
O     1.806000000     4.818000000    -2.753000000
H     2.431000000     4.922000000    -3.471000000
H     1.789000000     3.875000000    -2.587000000
O     3.646000000     3.578000000     2.284000000
H     3.800000000     3.464000000     1.347000000
H     2.827000000     4.071000000     2.334000000
O     0.402000000     6.348000000     7.178000000
H     0.623000000     6.058000000     8.063000000
H     0.681000000     5.627000000     6.613000000
O    -0.623000000    10.974000000     1.824000000
H    -0.209000000    10.189000000     1.465000000
H     0.050000000    11.651000000     1.760000000
O     1.373000000     9.756000000     3.810000000
H     1.056000000     9.510000000     2.941000000
H     1.809000000     8.970000000     4.139000000
O     1.821000000     2.030000000    -1.856000000
H     1.630000000     2.226000000    -0.939000000
H     2.475000000     1.332000000    -1.820000000
O     1.733000000     4.891000000     5.066000000
H     1.526000000     5.056000000     4.146000000
H     2.684000000     4.784000000     5.082000000
O    -1.802000000     8.525000000    -0.508000000
H    -1.166000000     7.810000000    -0.475000000
H    -1.686000000     8.986000000     0.323000000
O    -0.547000000     8.667000000    -3.259000000
H    -0.467000000     7.971000000    -2.607000000
H    -1.129000000     8.303000000    -3.927000000
O     5.842000000     6.532000000     1.042000000
H     4.960000000     6.651000000     0.689000000
H     5.855000000     7.063000000     1.838000000
O     4.722000000     4.097000000    -0.500000000
H     5.071000000     4.747000000     0.110000000
H     4.408000000     4.611000000    -1.243000000
O     0.450000000     8.369000000     1.577000000
H     0.539000000     7.418000000     1.634000000
H     0.984000000     8.615000000     0.822000000
O     0.591000000     6.848000000    -1.517000000
H     0.762000000     6.512000000    -0.637000000
H     0.750000000     6.101000000    -2.094000000
O     3.686000000     7.493000000     3.617000000
H     4.572000000     7.183000000     3.806000000
H     3.790000000     8.073000000     2.864000000
O     5.858000000     4.099000000     3.997000000
H     5.656000000     5.003000000     3.755000000
H     5.126000000     3.589000000     3.649000000
O     2.083000000     8.025000000     6.227000000
H     2.590000000     7.480000000     5.624000000
H     1.386000000     7.449000000     6.542000000
