215
-1468.38093
C     2.689000000    -0.056000000     4.464000000
H     3.367000000    -0.750000000     3.974000000
C     1.358000000    -0.432000000     4.596000000
C     0.479000000     0.395000000     5.252000000
H    -0.473000000    -0.006000000     5.592000000
C     0.885000000    -1.606000000     3.914000000
O     1.863000000    -2.686000000     3.809000000
H     0.705000000    -1.338000000     2.862000000
O    -0.354000000    -2.149000000     4.502000000
C    -1.444000000    -2.495000000     3.761000000
C    -2.436000000    -1.541000000     3.702000000
H    -2.412000000    -0.650000000     4.324000000
C    -3.473000000    -1.699000000     2.798000000
O    -4.183000000    -0.584000000     2.538000000
C    -3.572000000    -2.847000000     2.002000000
C    -4.681000000    -2.981000000     0.988000000
H    -4.955000000    -4.033000000     0.880000000
C    -4.285000000    -2.332000000    -0.414000000
C    -3.780000000    -3.191000000    -1.434000000
H    -3.672000000    -4.247000000    -1.198000000
H    -5.637000000    -2.589000000     1.343000000
C    -2.630000000    -3.873000000     2.177000000
H    -2.589000000    -4.804000000     1.618000000
C    -1.444000000    -3.620000000     2.958000000
C    -0.295000000    -4.656000000     3.087000000
H    -0.575000000    -5.675000000     2.815000000
H    -0.013000000    -4.829000000     4.128000000
C     0.988000000    -4.371000000     2.284000000
C     1.026000000    -4.908000000     0.995000000
H     0.316000000    -5.699000000     0.767000000
C     1.921000000    -3.406000000     2.622000000
C     2.870000000    -2.986000000     1.689000000
H     3.657000000    -2.297000000     1.983000000
C     2.813000000    -3.463000000     0.388000000
O     3.707000000    -2.943000000    -0.532000000
C     3.276000000    -2.059000000    -1.529000000
C     4.312000000    -0.970000000    -1.731000000
C     4.724000000    -0.515000000    -2.937000000
H     4.311000000    -0.938000000    -3.850000000
C     4.828000000    -0.348000000    -0.558000000
H     4.439000000    -0.661000000     0.407000000
O     3.040000000    -2.814000000    -2.747000000
H     2.391000000    -1.549000000    -1.119000000
C     1.870000000    -4.446000000     0.033000000
C     1.844000000    -5.063000000    -1.331000000
H     1.343000000    -6.032000000    -1.379000000
H     2.885000000    -5.183000000    -1.638000000
C     1.064000000    -4.144000000    -2.256000000
C    -0.299000000    -4.402000000    -2.591000000
H    -0.850000000    -5.150000000    -2.027000000
C     1.746000000    -3.142000000    -3.020000000
C     1.026000000    -2.331000000    -3.928000000
H     1.522000000    -1.455000000    -4.338000000
C    -0.286000000    -2.478000000    -4.128000000
O    -0.898000000    -1.506000000    -4.847000000
C    -1.524000000    -0.492000000    -4.032000000
C    -1.181000000     0.931000000    -4.518000000
C    -0.014000000     1.108000000    -5.218000000
H     0.610000000     0.297000000    -5.585000000
C    -1.943000000     2.052000000    -4.219000000
H    -2.874000000     2.010000000    -3.658000000
O    -2.981000000    -0.650000000    -3.910000000
H    -1.152000000    -0.433000000    -2.998000000
C    -0.976000000    -3.522000000    -3.498000000
C    -2.546000000    -3.543000000    -3.582000000
H    -2.821000000    -4.557000000    -3.285000000
H    -2.926000000    -3.452000000    -4.601000000
C    -3.287000000    -2.643000000    -2.599000000
C    -3.392000000    -1.273000000    -2.821000000
C    -4.006000000    -0.504000000    -1.846000000
H    -4.115000000     0.569000000    -1.982000000
C    -4.495000000    -1.014000000    -0.625000000
O    -4.960000000    -0.141000000     0.386000000
C    -3.932000000     0.211000000     1.323000000
H    -2.914000000    -0.001000000     0.964000000
C    -3.997000000     1.801000000     1.606000000
C    -3.727000000     2.267000000     2.906000000
H    -3.430000000     1.554000000     3.671000000
C    -4.116000000     2.733000000     0.536000000
H    -4.190000000     2.439000000    -0.508000000
C    -4.243000000     4.076000000     0.834000000
O    -4.269000000     5.065000000    -0.126000000
C    -4.078000000     4.532000000     2.122000000
H    -4.123000000     5.586000000     2.384000000
C    -3.751000000     3.637000000     3.145000000
O    -3.786000000     4.037000000     4.460000000
C    -3.135000000     3.469000000     5.522000000
C    -1.831000000     3.028000000     5.483000000
H    -1.171000000     3.258000000     4.650000000
C    -3.843000000     3.259000000     6.718000000
H    -4.872000000     3.598000000     6.794000000
C    -3.324000000     2.654000000     7.851000000
H    -3.918000000     2.611000000     8.761000000
C    -1.935000000     2.397000000     7.801000000
H    -1.527000000     1.966000000     8.712000000
C    -1.268000000     2.462000000     6.574000000
O     0.060000000     2.341000000     6.614000000
C     0.891000000     1.615000000     5.755000000
C     2.235000000     2.028000000     5.593000000
H     2.726000000     2.914000000     5.988000000
C     3.120000000     1.138000000     5.041000000
O     4.514000000     1.533000000     5.044000000
C     5.332000000     1.002000000     4.099000000
C     5.199000000     1.421000000     2.789000000
H     4.433000000     2.147000000     2.527000000
C     6.341000000     0.108000000     4.435000000
H     6.484000000    -0.274000000     5.442000000
C     7.209000000    -0.426000000     3.370000000
H     7.961000000    -1.165000000     3.635000000
C     7.112000000     0.119000000     2.079000000
H     7.863000000    -0.138000000     1.337000000
C     6.074000000     1.002000000     1.803000000
O     6.074000000     1.476000000     0.510000000
C     5.680000000     0.745000000    -0.612000000
C     5.986000000     1.294000000    -1.822000000
H     6.430000000     2.280000000    -1.940000000
C     5.538000000     0.687000000    -2.978000000
O     5.737000000     1.305000000    -4.207000000
C     4.871000000     1.299000000    -5.325000000
C     3.623000000     1.959000000    -5.291000000
H     3.365000000     2.647000000    -4.491000000
C     5.231000000     0.538000000    -6.478000000
H     6.247000000     0.152000000    -6.498000000
C     4.412000000     0.485000000    -7.601000000
H     4.649000000    -0.093000000    -8.491000000
C     3.184000000     1.190000000    -7.537000000
H     2.548000000     1.182000000    -8.419000000
C     2.807000000     1.892000000    -6.422000000
O     1.588000000     2.584000000    -6.440000000
C     0.412000000     2.396000000    -5.685000000
C    -0.391000000     3.457000000    -5.471000000
H    -0.139000000     4.476000000    -5.752000000
C    -1.510000000     3.310000000    -4.657000000
O    -2.243000000     4.491000000    -4.380000000
C    -3.386000000     4.498000000    -3.638000000
C    -4.634000000     4.077000000    -4.170000000
H    -4.723000000     3.805000000    -5.219000000
C    -5.782000000     4.124000000    -3.345000000
H    -6.775000000     3.937000000    -3.748000000
C    -5.699000000     4.400000000    -1.946000000
H    -6.566000000     4.316000000    -1.297000000
C    -4.487000000     4.840000000    -1.433000000
C    -3.340000000     4.858000000    -2.284000000
H    -2.393000000     5.182000000    -1.858000000
C    -0.941000000     3.101000000     1.421000000
H    -1.265000000     3.567000000     2.348000000
C    -0.836000000     1.717000000     1.258000000
H    -1.090000000     1.071000000     2.094000000
C    -0.363000000     1.149000000     0.055000000
H    -0.401000000     0.068000000    -0.118000000
C     0.013000000     2.037000000    -0.960000000
H     0.424000000     1.674000000    -1.898000000
C    -0.035000000     3.418000000    -0.775000000
H     0.370000000     4.059000000    -1.553000000
C    -0.539000000     3.948000000     0.420000000
C    -0.470000000     5.444000000     0.683000000
O    -0.446000000     6.218000000    -0.272000000
O    -0.402000000     5.891000000     1.811000000
O     1.043000000    11.255000000     0.123000000
H     1.340000000    10.837000000    -0.686000000
H     0.892000000    10.528000000     0.727000000
O    -4.790000000     8.003000000    -0.899000000
H    -5.043000000     8.091000000    -1.818000000
H    -5.179000000     8.764000000    -0.470000000
O     0.913000000     8.575000000     2.066000000
H     1.723000000     8.423000000     1.578000000
H     0.345000000     7.845000000     1.820000000
O    -1.507000000    10.216000000    -2.144000000
H    -1.615000000     9.743000000    -1.319000000
H    -2.372000000    10.186000000    -2.553000000
O    -3.526000000     7.800000000     5.402000000
H    -3.016000000     7.359000000     6.082000000
H    -2.975000000     7.752000000     4.620000000
O     2.591000000     5.951000000    -2.286000000
H     3.457000000     5.788000000    -2.661000000
H     2.726000000     6.679000000    -1.680000000
O     2.557000000     3.646000000     1.149000000
H     1.916000000     3.108000000     0.685000000
H     3.247000000     3.806000000     0.505000000
O    -2.833000000    10.309000000     1.392000000
H    -3.701000000    10.538000000     1.060000000
H    -2.559000000     9.567000000     0.854000000
O     2.433000000     7.305000000     0.374000000
H     1.686000000     6.778000000     0.090000000
H     2.979000000     6.698000000     0.873000000
O     0.673000000     5.448000000     4.340000000
H     0.296000000     5.448000000     3.460000000
H     0.601000000     6.357000000     4.632000000
O    -2.198000000     8.134000000    -0.044000000
H    -1.527000000     7.450000000    -0.060000000
H    -2.948000000     7.744000000    -0.493000000
O     1.049000000     9.435000000    -2.791000000
H     0.801000000     8.529000000    -2.609000000
H     0.230000000     9.926000000    -2.716000000
O    -1.939000000     7.356000000    -4.950000000
H    -1.320000000     7.240000000    -4.229000000
H    -1.975000000     6.499000000    -5.375000000
O    -2.139000000     7.654000000     3.055000000
H    -1.551000000     6.972000000     2.731000000
H    -2.568000000     7.994000000     2.270000000
O    -0.114000000     6.621000000    -2.755000000
H    -0.261000000     6.487000000    -1.818000000
H     0.744000000     6.231000000    -2.921000000
O     1.080000000     8.105000000     4.848000000
H     1.422000000     8.897000000     5.263000000
H     1.176000000     8.265000000     3.910000000
O     3.363000000     4.821000000     3.767000000
H     2.592000000     4.604000000     4.291000000
H     3.148000000     4.513000000     2.886000000
O    -0.970000000    10.234000000     3.693000000
H    -1.878000000    10.340000000     3.410000000
H    -0.728000000     9.355000000     3.399000000
O     4.845000000     4.122000000    -0.159000000
H     5.528000000     3.534000000     0.166000000
H     5.307000000     4.935000000    -0.364000000
