215
-1441.94507
C     2.799000000    -0.084000000     4.213000000
H     3.330000000    -0.842000000     3.644000000
C     1.408000000    -0.074000000     4.395000000
C     0.747000000     1.019000000     4.988000000
H    -0.328000000     1.060000000     5.145000000
C     0.568000000    -1.203000000     3.959000000
O     1.254000000    -2.505000000     4.011000000
H     0.346000000    -1.051000000     2.892000000
O    -0.598000000    -1.388000000     4.803000000
C    -1.769000000    -1.621000000     4.044000000
C    -2.632000000    -0.576000000     3.830000000
H    -2.452000000     0.432000000     4.194000000
C    -3.755000000    -0.618000000     2.950000000
O    -4.342000000     0.462000000     2.513000000
C    -4.025000000    -1.835000000     2.335000000
C    -5.069000000    -2.009000000     1.202000000
H    -5.447000000    -3.034000000     1.201000000
C    -4.594000000    -1.739000000    -0.217000000
C    -4.119000000    -2.807000000    -0.984000000
H    -4.027000000    -3.822000000    -0.606000000
H    -5.918000000    -1.381000000     1.481000000
C    -3.199000000    -2.948000000     2.681000000
H    -3.330000000    -3.872000000     2.124000000
C    -2.007000000    -2.794000000     3.331000000
C    -1.131000000    -4.062000000     3.400000000
H    -1.679000000    -4.867000000     2.907000000
H    -0.838000000    -4.483000000     4.364000000
C     0.120000000    -4.076000000     2.512000000
C     0.105000000    -4.899000000     1.377000000
H    -0.734000000    -5.483000000     1.009000000
C     1.235000000    -3.350000000     2.911000000
C     2.336000000    -3.393000000     2.102000000
H     3.197000000    -2.761000000     2.303000000
C     2.314000000    -4.051000000     0.881000000
O     3.270000000    -3.824000000    -0.058000000
C     2.995000000    -2.842000000    -1.104000000
C     4.149000000    -1.864000000    -1.287000000
C     4.008000000    -0.870000000    -2.237000000
H     3.097000000    -0.698000000    -2.805000000
C     5.240000000    -1.839000000    -0.461000000
H     5.302000000    -2.460000000     0.428000000
O     2.673000000    -3.598000000    -2.337000000
H     2.115000000    -2.240000000    -0.833000000
C     1.211000000    -4.793000000     0.508000000
C     1.151000000    -5.555000000    -0.834000000
H     0.619000000    -6.499000000    -0.702000000
H     2.124000000    -5.963000000    -1.112000000
C     0.514000000    -4.666000000    -1.892000000
C    -0.849000000    -4.671000000    -2.142000000
H    -1.514000000    -5.309000000    -1.566000000
C     1.331000000    -3.786000000    -2.557000000
C     0.768000000    -2.950000000    -3.481000000
H     1.403000000    -2.256000000    -4.026000000
C    -0.566000000    -2.938000000    -3.725000000
O    -1.020000000    -1.910000000    -4.526000000
C    -1.568000000    -0.780000000    -3.857000000
C    -1.107000000     0.591000000    -4.493000000
C     0.078000000     0.669000000    -5.364000000
H     0.677000000    -0.212000000    -5.579000000
C    -1.771000000     1.798000000    -4.192000000
H    -2.614000000     1.750000000    -3.508000000
O    -2.990000000    -0.942000000    -3.893000000
H    -1.228000000    -0.685000000    -2.815000000
C    -1.443000000    -3.780000000    -3.009000000
C    -2.952000000    -3.586000000    -3.115000000
H    -3.355000000    -4.535000000    -2.754000000
H    -3.094000000    -3.525000000    -4.196000000
C    -3.574000000    -2.515000000    -2.251000000
C    -3.583000000    -1.205000000    -2.777000000
C    -4.140000000    -0.154000000    -2.023000000
H    -4.081000000     0.852000000    -2.431000000
C    -4.542000000    -0.395000000    -0.678000000
O    -4.871000000     0.620000000     0.168000000
C    -3.929000000     1.050000000     1.185000000
H    -2.904000000     0.748000000     0.922000000
C    -3.848000000     2.527000000     1.233000000
C    -3.112000000     3.113000000     2.238000000
H    -2.540000000     2.645000000     3.036000000
C    -4.458000000     3.345000000     0.261000000
H    -5.060000000     2.903000000    -0.529000000
C    -4.179000000     4.714000000     0.251000000
O    -4.588000000     5.519000000    -0.742000000
C    -3.455000000     5.312000000     1.344000000
H    -3.259000000     6.381000000     1.352000000
C    -2.991000000     4.495000000     2.337000000
O    -2.161000000     5.147000000     3.281000000
C    -1.868000000     4.549000000     4.411000000
C    -0.573000000     4.097000000     4.693000000
H     0.265000000     4.165000000     4.003000000
C    -2.958000000     4.355000000     5.288000000
H    -3.969000000     4.619000000     4.989000000
C    -2.714000000     3.689000000     6.520000000
H    -3.575000000     3.485000000     7.152000000
C    -1.399000000     3.339000000     6.842000000
H    -1.207000000     2.978000000     7.849000000
C    -0.351000000     3.491000000     5.924000000
O     0.923000000     3.131000000     6.219000000
C     1.503000000     2.080000000     5.476000000
C     2.896000000     2.045000000     5.331000000
H     3.507000000     2.893000000     5.629000000
C     3.495000000     1.072000000     4.559000000
O     4.786000000     1.274000000     4.103000000
C     5.605000000     0.261000000     3.633000000
C     5.865000000     0.252000000     2.263000000
H     5.355000000     0.874000000     1.532000000
C     6.462000000    -0.345000000     4.525000000
H     6.251000000    -0.283000000     5.589000000
C     7.457000000    -1.191000000     4.010000000
H     8.088000000    -1.758000000     4.690000000
C     7.757000000    -1.205000000     2.611000000
H     8.637000000    -1.759000000     2.294000000
C     6.866000000    -0.553000000     1.744000000
O     7.148000000    -0.774000000     0.431000000
C     6.256000000    -0.862000000    -0.629000000
C     6.152000000     0.120000000    -1.590000000
H     6.852000000     0.951000000    -1.551000000
C     5.030000000     0.095000000    -2.397000000
O     4.756000000     1.170000000    -3.212000000
C     4.412000000     0.932000000    -4.569000000
C     3.176000000     1.435000000    -4.938000000
H     2.571000000     1.878000000    -4.151000000
C     5.236000000     0.318000000    -5.492000000
H     6.228000000    -0.072000000    -5.280000000
C     4.831000000     0.310000000    -6.805000000
H     5.496000000    -0.045000000    -7.588000000
C     3.652000000     0.936000000    -7.183000000
H     3.418000000     0.970000000    -8.244000000
C     2.794000000     1.451000000    -6.225000000
O     1.561000000     1.971000000    -6.655000000
C     0.466000000     1.871000000    -5.851000000
C    -0.233000000     2.988000000    -5.555000000
H     0.140000000     3.862000000    -6.083000000
C    -1.405000000     2.982000000    -4.761000000
O    -2.062000000     4.140000000    -4.514000000
C    -3.260000000     4.272000000    -3.912000000
C    -4.354000000     3.698000000    -4.466000000
H    -4.187000000     3.118000000    -5.370000000
C    -5.606000000     3.778000000    -3.841000000
H    -6.488000000     3.385000000    -4.340000000
C    -5.699000000     4.359000000    -2.595000000
H    -6.666000000     4.357000000    -2.097000000
C    -4.579000000     4.966000000    -2.024000000
C    -3.370000000     4.905000000    -2.708000000
H    -2.521000000     5.369000000    -2.214000000
C     1.779000000     2.304000000     1.244000000
H     2.564000000     2.463000000     1.979000000
C     1.453000000     0.958000000     1.009000000
H     2.112000000     0.171000000     1.367000000
C     0.310000000     0.593000000     0.295000000
H     0.062000000    -0.406000000     0.043000000
C    -0.406000000     1.669000000    -0.322000000
H    -1.191000000     1.349000000    -1.003000000
C    -0.125000000     2.993000000    -0.027000000
H    -0.705000000     3.747000000    -0.552000000
C     0.984000000     3.350000000     0.854000000
C     1.288000000     4.766000000     1.227000000
O     0.568000000     5.700000000     0.873000000
O     2.263000000     5.030000000     1.890000000
O     2.595000000     9.195000000     0.199000000
H     3.521000000     9.337000000     0.394000000
H     2.190000000    10.054000000     0.320000000
O     3.351000000     6.611000000    -0.155000000
H     2.806000000     7.354000000    -0.414000000
H     2.837000000     6.159000000     0.515000000
O    -1.374000000     7.969000000     3.785000000
H    -0.748000000     8.148000000     3.083000000
H    -1.636000000     7.059000000     3.645000000
O     1.212000000     5.060000000    -3.345000000
H     1.858000000     4.879000000    -4.027000000
H     1.444000000     4.464000000    -2.632000000
O     4.698000000     4.587000000     0.963000000
H     4.428000000     5.155000000     0.242000000
H     3.909000000     4.484000000     1.496000000
O     1.603000000     5.734000000     7.146000000
H     2.466000000     5.958000000     6.799000000
H     1.137000000     5.353000000     6.402000000
O     2.575000000     3.556000000    -1.678000000
H     3.523000000     3.429000000    -1.707000000
H     2.290000000     3.050000000    -0.917000000
O     2.298000000     5.676000000     4.443000000
H     2.297000000     5.553000000     3.493000000
H     3.191000000     5.462000000     4.711000000
O     7.427000000     3.726000000     0.123000000
H     6.970000000     3.748000000     0.963000000
H     6.740000000     3.546000000    -0.519000000
O     1.289000000     9.490000000    -3.206000000
H     0.464000000     9.956000000    -3.074000000
H     1.303000000     8.827000000    -2.515000000
O     5.396000000     3.687000000    -2.110000000
H     5.455000000     4.421000000    -2.721000000
H     5.160000000     2.938000000    -2.657000000
O     5.239000000     7.925000000     4.291000000
H     5.923000000     8.264000000     4.869000000
H     4.420000000     8.147000000     4.733000000
O     0.413000000     8.315000000     1.779000000
H     0.468000000     7.380000000     1.581000000
H     0.699000000     8.747000000     0.974000000
O    -0.217000000     6.736000000    -4.966000000
H    -0.040000000     6.046000000    -4.326000000
H    -1.015000000     6.450000000    -5.411000000
O     0.687000000     7.146000000    -1.529000000
H     0.580000000     6.882000000    -0.615000000
H     0.851000000     6.328000000    -1.998000000
O     2.744000000     8.086000000     5.639000000
H     2.279000000     7.307000000     5.333000000
H     2.619000000     8.729000000     4.941000000
O     5.151000000     5.041000000     4.192000000
H     5.287000000     5.914000000     4.559000000
H     5.186000000     5.171000000     3.244000000
O     5.688000000     7.706000000    -1.101000000
H     6.093000000     8.228000000    -0.408000000
H     4.887000000     7.363000000    -0.705000000
O     2.321000000     9.618000000     3.450000000
H     2.922000000    10.145000000     2.922000000
H     1.867000000     9.065000000     2.814000000
