215
-1455.67689
C     2.803000000    -0.170000000     4.388000000
H     3.486000000    -0.901000000     3.962000000
C     1.476000000    -0.360000000     4.425000000
C     0.522000000     0.641000000     4.812000000
H    -0.561000000     0.554000000     4.767000000
C     0.892000000    -1.664000000     3.791000000
O     1.916000000    -2.675000000     3.734000000
H     0.644000000    -1.459000000     2.739000000
O    -0.333000000    -2.116000000     4.555000000
C    -1.376000000    -2.369000000     3.742000000
C    -2.334000000    -1.386000000     3.631000000
H    -2.286000000    -0.437000000     4.159000000
C    -3.345000000    -1.523000000     2.692000000
O    -4.224000000    -0.488000000     2.470000000
C    -3.502000000    -2.727000000     1.993000000
C    -4.590000000    -2.804000000     0.951000000
H    -4.730000000    -3.881000000     0.831000000
C    -4.268000000    -2.235000000    -0.414000000
C    -3.601000000    -3.030000000    -1.355000000
H    -3.474000000    -4.076000000    -1.088000000
H    -5.496000000    -2.345000000     1.351000000
C    -2.555000000    -3.699000000     2.176000000
H    -2.706000000    -4.651000000     1.673000000
C    -1.471000000    -3.571000000     3.021000000
C    -0.290000000    -4.602000000     3.088000000
H    -0.727000000    -5.599000000     3.004000000
H     0.113000000    -4.630000000     4.103000000
C     0.821000000    -4.295000000     2.163000000
C     0.767000000    -4.792000000     0.848000000
H    -0.088000000    -5.357000000     0.485000000
C     1.917000000    -3.521000000     2.629000000
C     2.940000000    -3.253000000     1.781000000
H     3.572000000    -2.435000000     2.119000000
C     2.920000000    -3.651000000     0.485000000
O     3.691000000    -3.010000000    -0.410000000
C     3.118000000    -1.945000000    -1.208000000
C     4.166000000    -0.845000000    -1.195000000
C     4.035000000     0.140000000    -2.126000000
H     3.204000000     0.052000000    -2.821000000
C     5.131000000    -0.748000000    -0.153000000
H     5.145000000    -1.391000000     0.723000000
O     2.879000000    -2.480000000    -2.539000000
H     2.215000000    -1.452000000    -0.820000000
C     1.840000000    -4.489000000     0.009000000
C     1.884000000    -4.932000000    -1.390000000
H     1.454000000    -5.933000000    -1.463000000
H     2.866000000    -5.137000000    -1.822000000
C     1.029000000    -4.093000000    -2.322000000
C    -0.410000000    -4.316000000    -2.575000000
H    -0.933000000    -5.020000000    -1.934000000
C     1.622000000    -2.927000000    -2.868000000
C     0.957000000    -2.105000000    -3.730000000
H     1.495000000    -1.308000000    -4.235000000
C    -0.371000000    -2.452000000    -4.070000000
O    -1.014000000    -1.577000000    -4.907000000
C    -1.628000000    -0.469000000    -4.232000000
C    -1.247000000     0.832000000    -4.926000000
C    -0.055000000     0.997000000    -5.626000000
H     0.628000000     0.160000000    -5.741000000
C    -2.065000000     1.952000000    -4.781000000
H    -2.986000000     1.866000000    -4.210000000
O    -3.067000000    -0.658000000    -4.120000000
H    -1.289000000    -0.489000000    -3.185000000
C    -1.100000000    -3.507000000    -3.459000000
C    -2.658000000    -3.580000000    -3.606000000
H    -2.915000000    -4.597000000    -3.301000000
H    -2.996000000    -3.450000000    -4.636000000
C    -3.324000000    -2.605000000    -2.664000000
C    -3.521000000    -1.242000000    -2.971000000
C    -4.136000000    -0.421000000    -2.058000000
H    -4.306000000     0.607000000    -2.367000000
C    -4.461000000    -0.908000000    -0.728000000
O    -4.916000000    -0.007000000     0.137000000
C    -4.087000000     0.402000000     1.305000000
H    -3.028000000     0.311000000     1.021000000
C    -4.333000000     1.899000000     1.566000000
C    -4.287000000     2.404000000     2.876000000
H    -4.261000000     1.761000000     3.752000000
C    -4.334000000     2.779000000     0.479000000
H    -4.411000000     2.362000000    -0.522000000
C    -4.287000000     4.134000000     0.673000000
O    -4.218000000     4.996000000    -0.466000000
C    -4.232000000     4.672000000     1.956000000
H    -4.088000000     5.744000000     2.065000000
C    -4.272000000     3.814000000     3.047000000
O    -4.050000000     4.308000000     4.302000000
C    -3.303000000     3.649000000     5.225000000
C    -1.960000000     3.452000000     4.967000000
H    -1.525000000     3.947000000     4.103000000
C    -3.865000000     3.101000000     6.337000000
H    -4.920000000     3.249000000     6.550000000
C    -3.091000000     2.197000000     7.152000000
H    -3.569000000     1.736000000     8.012000000
C    -1.746000000     2.041000000     6.945000000
H    -1.124000000     1.509000000     7.660000000
C    -1.191000000     2.663000000     5.827000000
O     0.206000000     2.835000000     5.753000000
C     0.997000000     1.863000000     5.291000000
C     2.338000000     2.156000000     5.146000000
H     2.627000000     3.098000000     5.603000000
C     3.290000000     1.140000000     4.727000000
O     4.641000000     1.483000000     4.720000000
C     5.635000000     0.801000000     4.066000000
C     5.719000000     0.869000000     2.669000000
H     4.918000000     1.452000000     2.220000000
C     6.692000000     0.213000000     4.759000000
H     6.647000000     0.100000000     5.839000000
C     7.868000000    -0.190000000     4.123000000
H     8.691000000    -0.619000000     4.689000000
C     7.970000000    -0.158000000     2.722000000
H     8.876000000    -0.319000000     2.144000000
C     6.857000000     0.327000000     2.033000000
O     7.031000000     0.580000000     0.730000000
C     6.067000000     0.265000000    -0.215000000
C     5.994000000     1.197000000    -1.216000000
H     6.724000000     1.992000000    -1.091000000
C     4.980000000     1.179000000    -2.198000000
O     4.894000000     2.127000000    -3.223000000
C     4.453000000     1.685000000    -4.433000000
C     3.411000000     2.305000000    -5.115000000
H     2.939000000     3.149000000    -4.619000000
C     4.911000000     0.541000000    -4.994000000
H     5.810000000     0.063000000    -4.616000000
C     4.393000000     0.007000000    -6.182000000
H     4.848000000    -0.921000000    -6.519000000
C     3.186000000     0.517000000    -6.683000000
H     2.790000000     0.130000000    -7.619000000
C     2.729000000     1.743000000    -6.199000000
O     1.602000000     2.431000000    -6.663000000
C     0.344000000     2.275000000    -6.056000000
C    -0.429000000     3.405000000    -5.777000000
H    -0.157000000     4.435000000    -5.993000000
C    -1.599000000     3.246000000    -5.102000000
O    -2.332000000     4.369000000    -4.784000000
C    -3.451000000     4.358000000    -4.007000000
C    -4.683000000     3.849000000    -4.470000000
H    -4.676000000     3.441000000    -5.478000000
C    -5.798000000     3.794000000    -3.562000000
H    -6.705000000     3.303000000    -3.905000000
C    -5.598000000     4.323000000    -2.283000000
H    -6.406000000     4.315000000    -1.556000000
C    -4.297000000     4.631000000    -1.803000000
C    -3.261000000     4.771000000    -2.705000000
H    -2.367000000     5.269000000    -2.337000000
C    -0.399000000     2.603000000     1.549000000
H    -0.305000000     3.009000000     2.553000000
C    -0.614000000     1.258000000     1.257000000
H    -0.828000000     0.554000000     2.057000000
C    -0.511000000     0.768000000    -0.077000000
H    -0.482000000    -0.267000000    -0.269000000
C    -0.468000000     1.704000000    -1.098000000
H    -0.429000000     1.357000000    -2.127000000
C    -0.347000000     3.071000000    -0.812000000
H    -0.167000000     3.758000000    -1.635000000
C    -0.318000000     3.547000000     0.511000000
C    -0.004000000     4.996000000     0.826000000
O    -0.046000000     5.819000000    -0.075000000
O    -0.003000000     5.400000000     1.972000000
O     1.825000000    10.197000000    -0.406000000
H     1.433000000     9.455000000    -0.868000000
H     1.080000000    10.744000000    -0.156000000
O     2.973000000     6.696000000     0.612000000
H     2.827000000     7.601000000     0.886000000
H     2.243000000     6.209000000     0.994000000
O    -3.507000000     7.771000000     3.623000000
H    -2.708000000     7.971000000     3.136000000
H    -3.280000000     7.006000000     4.152000000
O     4.090000000     6.435000000    -2.682000000
H     3.976000000     6.653000000    -3.608000000
H     4.699000000     5.697000000    -2.683000000
O     2.406000000     4.366000000     3.023000000
H     1.571000000     4.677000000     2.674000000
H     2.418000000     3.431000000     2.816000000
O    -1.811000000     6.161000000     6.457000000
H    -1.108000000     5.735000000     6.947000000
H    -1.385000000     6.491000000     5.666000000
O    -0.712000000    10.353000000     0.721000000
H    -0.625000000    11.152000000     1.240000000
H    -1.008000000     9.692000000     1.346000000
O    -0.094000000     9.348000000     3.954000000
H    -0.271000000     8.792000000     3.195000000
H     0.831000000     9.200000000     4.149000000
O     2.469000000     2.602000000     0.954000000
H     3.048000000     2.825000000     0.225000000
H     1.851000000     1.971000000     0.585000000
O     0.187000000     6.076000000     4.572000000
H     0.250000000     6.140000000     3.620000000
H     1.090000000     6.155000000     4.879000000
O     5.238000000     8.229000000    -0.602000000
H     4.389000000     8.101000000    -0.178000000
H     5.303000000     7.510000000    -1.230000000
O    -3.025000000     7.645000000    -0.163000000
H    -2.510000000     7.988000000    -0.893000000
H    -3.069000000     6.702000000    -0.323000000
O    -1.614000000     8.277000000    -2.620000000
H    -0.717000000     8.019000000    -2.406000000
H    -1.788000000     7.861000000    -3.464000000
O     4.792000000     4.547000000     1.189000000
H     4.651000000     5.395000000     0.767000000
H     4.073000000     4.471000000     1.817000000
O    -1.310000000     7.654000000     1.959000000
H    -0.825000000     6.829000000     1.972000000
H    -1.827000000     7.616000000     1.154000000
O     0.863000000     7.495000000    -1.730000000
H     0.530000000     6.792000000    -1.172000000
H     1.808000000     7.348000000    -1.764000000
O     2.612000000     8.111000000     3.769000000
H     3.498000000     7.841000000     4.010000000
H     2.733000000     8.676000000     3.006000000
O     4.592000000     4.879000000     4.732000000
H     4.878000000     5.788000000     4.639000000
H     3.810000000     4.817000000     4.183000000
O     3.303000000     9.549000000     1.788000000
H     2.787000000     9.750000000     1.008000000
H     3.847000000    10.325000000     1.922000000
