215
-1455.87856
C     0.776000000    -0.488000000     4.722000000
H     1.642000000    -0.902000000     4.211000000
C    -0.539000000    -0.910000000     4.529000000
C    -1.608000000    -0.168000000     5.035000000
H    -2.651000000    -0.468000000     4.986000000
C    -0.824000000    -2.076000000     3.590000000
O     0.136000000    -3.139000000     3.747000000
H    -0.809000000    -1.716000000     2.551000000
O    -2.148000000    -2.636000000     3.762000000
C    -2.850000000    -2.808000000     2.556000000
C    -3.551000000    -1.696000000     2.143000000
H    -3.594000000    -0.767000000     2.705000000
C    -4.287000000    -1.796000000     0.954000000
O    -4.986000000    -0.728000000     0.501000000
C    -4.069000000    -2.886000000     0.094000000
C    -4.720000000    -2.865000000    -1.285000000
H    -4.935000000    -3.904000000    -1.540000000
C    -3.847000000    -2.145000000    -2.279000000
C    -2.904000000    -2.835000000    -3.060000000
H    -2.913000000    -3.922000000    -3.049000000
H    -5.667000000    -2.328000000    -1.190000000
C    -3.102000000    -3.888000000     0.519000000
H    -2.850000000    -4.705000000    -0.152000000
C    -2.565000000    -3.879000000     1.753000000
C    -1.607000000    -5.034000000     2.137000000
H    -1.892000000    -6.024000000     1.773000000
H    -1.706000000    -5.031000000     3.224000000
C    -0.241000000    -4.586000000     1.759000000
C     0.339000000    -5.113000000     0.626000000
H    -0.230000000    -5.637000000    -0.138000000
C     0.547000000    -3.788000000     2.615000000
C     1.870000000    -3.379000000     2.349000000
H     2.382000000    -2.796000000     3.111000000
C     2.398000000    -3.846000000     1.125000000
O     3.640000000    -3.253000000     0.873000000
C     3.711000000    -2.225000000    -0.135000000
C     4.821000000    -1.258000000     0.186000000
C     5.447000000    -0.560000000    -0.840000000
H     5.391000000    -0.821000000    -1.894000000
C     5.089000000    -0.836000000     1.485000000
H     4.470000000    -1.282000000     2.259000000
O     3.890000000    -2.917000000    -1.431000000
H     2.732000000    -1.726000000    -0.112000000
C     1.691000000    -4.743000000     0.247000000
C     2.150000000    -5.140000000    -1.152000000
H     1.673000000    -6.066000000    -1.479000000
H     3.201000000    -5.429000000    -1.091000000
C     1.839000000    -4.027000000    -2.149000000
C     0.722000000    -4.014000000    -2.907000000
H     0.041000000    -4.860000000    -2.879000000
C     2.731000000    -2.925000000    -2.173000000
C     2.550000000    -1.867000000    -3.126000000
H     3.271000000    -1.059000000    -3.216000000
C     1.446000000    -1.894000000    -3.910000000
O     1.123000000    -0.865000000    -4.785000000
C     0.238000000     0.168000000    -4.247000000
C     0.743000000     1.610000000    -4.492000000
C     2.103000000     1.893000000    -4.256000000
H     2.876000000     1.135000000    -4.157000000
C    -0.179000000     2.653000000    -4.632000000
H    -1.229000000     2.405000000    -4.759000000
O    -1.122000000    -0.075000000    -4.703000000
H     0.261000000    -0.168000000    -3.200000000
C     0.423000000    -2.937000000    -3.771000000
C    -0.906000000    -2.935000000    -4.591000000
H    -1.163000000    -3.987000000    -4.727000000
H    -0.781000000    -2.460000000    -5.566000000
C    -2.021000000    -2.180000000    -3.930000000
C    -2.018000000    -0.786000000    -3.995000000
C    -2.958000000    -0.043000000    -3.333000000
H    -2.853000000     1.038000000    -3.287000000
C    -3.848000000    -0.708000000    -2.467000000
O    -4.751000000    -0.005000000    -1.719000000
C    -4.344000000     0.243000000    -0.350000000
H    -3.251000000     0.117000000    -0.375000000
C    -4.631000000     1.658000000     0.028000000
C    -5.083000000     1.945000000     1.289000000
H    -5.467000000     1.151000000     1.924000000
C    -4.156000000     2.669000000    -0.823000000
H    -3.810000000     2.351000000    -1.803000000
C    -4.026000000     3.986000000    -0.336000000
O    -3.413000000     5.010000000    -1.101000000
C    -4.478000000     4.267000000     0.955000000
H    -4.283000000     5.207000000     1.464000000
C    -5.012000000     3.300000000     1.780000000
O    -5.350000000     3.784000000     3.050000000
C    -5.162000000     3.074000000     4.138000000
C    -3.850000000     2.626000000     4.432000000
H    -3.062000000     2.758000000     3.695000000
C    -6.135000000     3.114000000     5.183000000
H    -7.086000000     3.614000000     5.020000000
C    -5.851000000     2.554000000     6.387000000
H    -6.586000000     2.271000000     7.136000000
C    -4.603000000     2.003000000     6.613000000
H    -4.419000000     1.601000000     7.606000000
C    -3.564000000     2.124000000     5.744000000
O    -2.284000000     1.903000000     6.183000000
C    -1.353000000     1.031000000     5.679000000
C    -0.019000000     1.336000000     6.041000000
H     0.222000000     2.209000000     6.642000000
C     1.058000000     0.585000000     5.539000000
O     2.355000000     1.099000000     5.607000000
C     3.554000000     0.420000000     5.449000000
C     4.357000000     0.793000000     4.355000000
H     4.098000000     1.744000000     3.896000000
C     3.804000000    -0.727000000     6.193000000
H     3.181000000    -0.945000000     7.056000000
C     4.941000000    -1.455000000     5.878000000
H     5.157000000    -2.387000000     6.393000000
C     5.698000000    -1.055000000     4.767000000
H     6.522000000    -1.668000000     4.411000000
C     5.493000000     0.092000000     4.050000000
O     6.283000000     0.517000000     3.027000000
C     5.933000000     0.212000000     1.792000000
C     6.666000000     0.855000000     0.768000000
H     7.346000000     1.677000000     0.976000000
C     6.358000000     0.427000000    -0.549000000
O     7.096000000     0.901000000    -1.604000000
C     6.572000000     1.592000000    -2.732000000
C     5.515000000     2.495000000    -2.667000000
H     4.968000000     2.526000000    -1.729000000
C     7.204000000     1.350000000    -3.966000000
H     8.032000000     0.646000000    -3.954000000
C     6.739000000     1.901000000    -5.140000000
H     7.132000000     1.696000000    -6.132000000
C     5.657000000     2.759000000    -5.087000000
H     5.298000000     3.211000000    -6.008000000
C     5.000000000     2.925000000    -3.912000000
O     3.872000000     3.684000000    -4.002000000
C     2.541000000     3.238000000    -4.226000000
C     1.600000000     4.242000000    -4.536000000
H     1.925000000     5.276000000    -4.463000000
C     0.255000000     3.935000000    -4.736000000
O    -0.669000000     4.847000000    -5.065000000
C    -1.897000000     4.864000000    -4.438000000
C    -3.040000000     4.541000000    -5.217000000
H    -2.923000000     4.379000000    -6.285000000
C    -4.351000000     4.430000000    -4.664000000
H    -5.117000000     4.316000000    -5.428000000
C    -4.476000000     4.650000000    -3.319000000
H    -5.429000000     4.467000000    -2.829000000
C    -3.381000000     4.866000000    -2.524000000
C    -2.099000000     5.012000000    -3.063000000
H    -1.268000000     5.267000000    -2.411000000
C     0.339000000     2.556000000    -0.948000000
H    -0.231000000     3.373000000    -1.384000000
C    -0.262000000     1.265000000    -0.725000000
H    -1.194000000     0.988000000    -1.213000000
C     0.468000000     0.238000000    -0.106000000
H     0.010000000    -0.777000000    -0.188000000
C     1.731000000     0.538000000     0.489000000
H     2.292000000    -0.212000000     1.040000000
C     2.301000000     1.800000000     0.244000000
H     3.296000000     2.025000000     0.620000000
C     1.580000000     2.823000000    -0.367000000
C     2.083000000     4.262000000    -0.130000000
O     3.012000000     4.505000000     0.650000000
O     1.684000000     5.094000000    -0.952000000
O     1.453000000     7.607000000    -1.856000000
H     0.559000000     7.551000000    -2.194000000
H     1.618000000     6.747000000    -1.469000000
O     7.211000000     4.982000000    -1.167000000
H     7.722000000     5.234000000    -0.398000000
H     6.299000000     5.072000000    -0.890000000
O    -0.181000000     2.303000000     2.949000000
H     0.402000000     2.529000000     3.674000000
H     0.378000000     1.831000000     2.331000000
O    -1.249000000     7.904000000    -2.968000000
H    -2.082000000     7.600000000    -2.607000000
H    -1.219000000     8.835000000    -2.748000000
O     2.426000000     7.293000000     1.731000000
H     3.183000000     7.867000000     1.610000000
H     2.662000000     6.486000000     1.274000000
O     3.831000000     3.893000000     6.073000000
H     3.590000000     3.558000000     5.209000000
H     2.999000000     4.157000000     6.467000000
O     5.814000000     5.804000000     3.906000000
H     6.522000000     5.514000000     4.480000000
H     5.161000000     6.174000000     4.499000000
O     3.089000000     3.902000000     3.236000000
H     3.432000000     4.081000000     2.360000000
H     3.273000000     4.699000000     3.733000000
O    -2.726000000     7.598000000     2.237000000
H    -2.002000000     7.137000000     1.812000000
H    -2.907000000     7.085000000     3.024000000
O    -1.380000000     5.797000000     5.310000000
H    -1.712000000     5.294000000     4.567000000
H    -1.960000000     5.564000000     6.035000000
O    -0.308000000     6.512000000     0.821000000
H     0.287000000     7.260000000     0.870000000
H    -0.112000000     6.106000000    -0.023000000
O     3.311000000     7.327000000    -3.864000000
H     3.863000000     6.718000000    -3.374000000
H     2.808000000     7.788000000    -3.193000000
O     1.740000000    10.164000000    -0.523000000
H     0.959000000    10.374000000    -0.012000000
H     1.605000000     9.260000000    -0.807000000
O     5.246000000     8.571000000     1.969000000
H     6.145000000     8.835000000     1.773000000
H     5.313000000     7.645000000     2.204000000
O     6.258000000     8.387000000    -2.092000000
H     5.560000000     8.038000000    -1.538000000
H     5.909000000     9.215000000    -2.423000000
O    -1.779000000     4.502000000     2.473000000
H    -1.280000000     5.028000000     1.848000000
H    -1.237000000     3.728000000     2.623000000
O     4.283000000     6.772000000    -0.915000000
H     4.619000000     6.387000000    -0.105000000
H     3.428000000     6.361000000    -1.039000000
O     1.811000000     8.842000000     4.420000000
H     1.190000000     8.519000000     5.074000000
H     1.852000000     8.145000000     3.765000000
O     5.255000000     5.718000000     1.209000000
H     5.472000000     5.598000000     2.133000000
H     4.505000000     5.141000000     1.062000000
