215
-1460.34824
C     1.436000000    -0.348000000     5.294000000
H     2.158000000    -1.152000000     5.409000000
C     0.240000000    -0.490000000     4.635000000
C    -0.557000000     0.588000000     4.567000000
H    -1.422000000     0.647000000     3.913000000
C    -0.112000000    -1.730000000     3.881000000
O     0.803000000    -2.845000000     4.085000000
H    -0.277000000    -1.396000000     2.845000000
O    -1.370000000    -2.223000000     4.206000000
C    -2.139000000    -2.546000000     3.112000000
C    -3.083000000    -1.628000000     2.698000000
H    -3.272000000    -0.711000000     3.249000000
C    -3.871000000    -1.919000000     1.519000000
O    -4.818000000    -1.026000000     0.989000000
C    -3.656000000    -3.123000000     0.852000000
C    -4.394000000    -3.410000000    -0.461000000
H    -4.374000000    -4.497000000    -0.569000000
C    -3.738000000    -2.733000000    -1.638000000
C    -2.899000000    -3.466000000    -2.432000000
H    -2.811000000    -4.541000000    -2.293000000
H    -5.449000000    -3.128000000    -0.430000000
C    -2.627000000    -4.041000000     1.268000000
H    -2.410000000    -4.973000000     0.753000000
C    -1.901000000    -3.777000000     2.411000000
C    -0.852000000    -4.763000000     2.823000000
H    -1.166000000    -5.703000000     2.364000000
H    -0.776000000    -4.960000000     3.894000000
C     0.497000000    -4.403000000     2.262000000
C     0.937000000    -4.932000000     1.013000000
H     0.405000000    -5.760000000     0.552000000
C     1.274000000    -3.391000000     2.931000000
C     2.460000000    -2.925000000     2.307000000
H     3.095000000    -2.279000000     2.907000000
C     2.831000000    -3.470000000     1.093000000
O     3.876000000    -2.878000000     0.438000000
C     3.647000000    -1.880000000    -0.527000000
C     4.508000000    -0.690000000    -0.301000000
C     5.095000000    -0.034000000    -1.414000000
H     5.003000000    -0.417000000    -2.427000000
C     4.678000000    -0.208000000     0.974000000
H     4.233000000    -0.830000000     1.747000000
O     3.817000000    -2.480000000    -1.838000000
H     2.579000000    -1.643000000    -0.412000000
C     2.074000000    -4.446000000     0.433000000
C     2.449000000    -4.981000000    -0.921000000
H     2.150000000    -6.002000000    -1.167000000
H     3.512000000    -5.233000000    -0.920000000
C     1.999000000    -4.034000000    -2.068000000
C     0.768000000    -4.242000000    -2.715000000
H     0.107000000    -5.033000000    -2.369000000
C     2.648000000    -2.855000000    -2.471000000
C     2.174000000    -1.950000000    -3.365000000
H     2.641000000    -1.007000000    -3.638000000
C     1.014000000    -2.255000000    -4.024000000
O     0.532000000    -1.237000000    -4.819000000
C    -0.382000000    -0.388000000    -4.162000000
C    -0.051000000     1.076000000    -4.255000000
C     1.229000000     1.516000000    -4.535000000
H     2.033000000     0.784000000    -4.521000000
C    -0.984000000     2.145000000    -3.994000000
H    -2.005000000     1.796000000    -3.864000000
O    -1.789000000    -0.667000000    -4.537000000
H    -0.255000000    -0.582000000    -3.087000000
C     0.268000000    -3.360000000    -3.703000000
C    -1.139000000    -3.594000000    -4.298000000
H    -1.315000000    -4.665000000    -4.418000000
H    -1.143000000    -3.124000000    -5.283000000
C    -2.128000000    -2.827000000    -3.400000000
C    -2.462000000    -1.484000000    -3.705000000
C    -3.440000000    -0.768000000    -3.044000000
H    -3.727000000     0.240000000    -3.332000000
C    -4.033000000    -1.368000000    -1.940000000
O    -4.898000000    -0.628000000    -1.205000000
C    -4.384000000    -0.047000000     0.012000000
H    -3.294000000    -0.019000000    -0.132000000
C    -4.810000000     1.344000000     0.247000000
C    -4.953000000     1.787000000     1.563000000
H    -4.962000000     1.149000000     2.443000000
C    -4.952000000     2.282000000    -0.775000000
H    -4.796000000     1.979000000    -1.807000000
C    -5.281000000     3.571000000    -0.502000000
O    -5.464000000     4.530000000    -1.519000000
C    -5.302000000     4.050000000     0.823000000
H    -5.410000000     5.107000000     1.051000000
C    -5.220000000     3.154000000     1.874000000
O    -5.283000000     3.583000000     3.134000000
C    -4.570000000     3.134000000     4.198000000
C    -3.178000000     3.354000000     4.247000000
H    -2.651000000     3.857000000     3.440000000
C    -5.217000000     2.395000000     5.196000000
H    -6.296000000     2.282000000     5.124000000
C    -4.474000000     1.934000000     6.287000000
H    -4.977000000     1.358000000     7.060000000
C    -3.078000000     2.039000000     6.338000000
H    -2.392000000     1.613000000     7.065000000
C    -2.435000000     2.730000000     5.247000000
O    -1.111000000     2.840000000     5.247000000
C    -0.208000000     1.757000000     5.319000000
C     0.956000000     1.848000000     5.988000000
H     1.191000000     2.756000000     6.537000000
C     1.835000000     0.797000000     5.939000000
O     3.112000000     0.984000000     6.451000000
C     4.155000000     0.675000000     5.638000000
C     4.276000000     1.278000000     4.403000000
H     3.871000000     2.261000000     4.177000000
C     4.983000000    -0.383000000     6.050000000
H     4.717000000    -0.951000000     6.938000000
C     5.971000000    -0.772000000     5.251000000
H     6.662000000    -1.587000000     5.451000000
C     6.172000000    -0.231000000     4.012000000
H     7.048000000    -0.411000000     3.394000000
C     5.366000000     0.851000000     3.604000000
O     5.730000000     1.471000000     2.451000000
C     5.447000000     0.947000000     1.212000000
C     6.051000000     1.631000000     0.108000000
H     6.612000000     2.555000000     0.225000000
C     5.792000000     1.157000000    -1.142000000
O     6.403000000     1.858000000    -2.124000000
C     5.873000000     2.063000000    -3.368000000
C     4.537000000     2.474000000    -3.576000000
H     3.951000000     2.666000000    -2.681000000
C     6.642000000     1.881000000    -4.470000000
H     7.672000000     1.590000000    -4.279000000
C     6.189000000     2.009000000    -5.740000000
H     6.912000000     1.770000000    -6.516000000
C     4.942000000     2.553000000    -5.956000000
H     4.598000000     2.836000000    -6.948000000
C     4.123000000     2.766000000    -4.856000000
O     2.934000000     3.329000000    -4.975000000
C     1.649000000     2.875000000    -4.684000000
C     0.677000000     3.874000000    -4.561000000
H     0.887000000     4.939000000    -4.511000000
C    -0.619000000     3.453000000    -4.163000000
O    -1.416000000     4.548000000    -3.945000000
C    -2.738000000     4.481000000    -3.981000000
C    -3.461000000     4.299000000    -5.181000000
H    -2.907000000     4.020000000    -6.073000000
C    -4.840000000     4.297000000    -5.166000000
H    -5.388000000     4.037000000    -6.068000000
C    -5.541000000     4.401000000    -3.936000000
H    -6.594000000     4.225000000    -3.733000000
C    -4.806000000     4.505000000    -2.740000000
C    -3.425000000     4.515000000    -2.771000000
H    -2.898000000     4.445000000    -1.823000000
C    -0.888000000     2.144000000     0.972000000
H    -1.425000000     2.686000000     1.747000000
C    -1.082000000     0.801000000     0.858000000
H    -1.689000000     0.272000000     1.588000000
C    -0.293000000     0.025000000    -0.013000000
H    -0.483000000    -1.049000000     0.091000000
C     0.646000000     0.618000000    -0.824000000
H     1.331000000     0.054000000    -1.452000000
C     0.840000000     1.975000000    -0.740000000
H     1.595000000     2.508000000    -1.313000000
C     0.076000000     2.749000000     0.133000000
C     0.216000000     4.256000000     0.097000000
O     1.028000000     4.822000000    -0.578000000
O    -0.171000000     4.925000000     1.020000000
O    -0.568000000     6.713000000    -1.772000000
H    -0.158000000     6.026000000    -1.246000000
H    -0.382000000     6.465000000    -2.677000000
O     5.149000000     5.067000000    -1.295000000
H     5.944000000     5.596000000    -1.235000000
H     5.085000000     4.634000000    -0.444000000
O     1.974000000     1.885000000     2.432000000
H     2.570000000     1.731000000     3.164000000
H     1.462000000     1.079000000     2.367000000
O     2.878000000     8.879000000    -0.732000000
H     2.570000000     8.039000000    -1.072000000
H     3.832000000     8.801000000    -0.728000000
O    -2.876000000     8.044000000    -0.743000000
H    -3.554000000     8.120000000    -1.413000000
H    -2.139000000     7.630000000    -1.194000000
O     3.081000000     8.045000000     4.008000000
H     2.695000000     7.472000000     3.345000000
H     3.615000000     7.461000000     4.546000000
O     3.997000000     6.490000000     1.573000000
H     3.505000000     5.730000000     1.263000000
H     3.326000000     7.141000000     1.782000000
O    -3.652000000     8.597000000     3.267000000
H    -3.153000000     7.797000000     3.102000000
H    -3.441000000     9.167000000     2.527000000
O     1.016000000     4.483000000     3.413000000
H     0.979000000     3.581000000     3.096000000
H     0.764000000     5.014000000     2.658000000
O     1.335000000     7.095000000     1.847000000
H     0.633000000     6.571000000     1.462000000
H     0.895000000     7.874000000     2.187000000
O    -0.822000000     9.102000000    -4.055000000
H    -0.155000000     8.539000000    -4.449000000
H    -1.165000000     8.589000000    -3.323000000
O     0.242000000     6.333000000     5.613000000
H     0.416000000     5.791000000     4.844000000
H    -0.680000000     6.575000000     5.533000000
O     0.109000000     9.631000000    -0.990000000
H     1.041000000     9.832000000    -0.907000000
H     0.059000000     8.680000000    -0.895000000
O     1.847000000     7.857000000    -4.083000000
H     2.490000000     7.696000000    -4.774000000
H     2.153000000     7.332000000    -3.344000000
O    -2.688000000     6.334000000     1.353000000
H    -1.876000000     5.857000000     1.181000000
H    -2.874000000     6.794000000     0.534000000
O     2.633000000     6.093000000    -2.051000000
H     3.375000000     5.523000000    -1.852000000
H     1.905000000     5.720000000    -1.553000000
O     3.235000000     4.783000000     5.302000000
H     3.027000000     5.535000000     5.856000000
H     2.549000000     4.780000000     4.635000000
O     3.251000000     4.041000000     0.718000000
H     2.804000000     3.248000000     1.014000000
H     2.555000000     4.583000000     0.346000000
O     5.432000000     8.131000000     0.092000000
H     5.073000000     7.445000000     0.655000000
H     6.367000000     7.933000000     0.039000000
