215
-1467.93763
C     1.116000000    -0.406000000     4.616000000
H     1.831000000    -1.117000000     4.210000000
C    -0.290000000    -0.605000000     4.580000000
C    -1.167000000     0.396000000     5.061000000
H    -2.232000000     0.251000000     4.899000000
C    -0.855000000    -1.852000000     3.821000000
O    -0.038000000    -2.996000000     4.118000000
H    -0.785000000    -1.565000000     2.762000000
O    -2.273000000    -2.086000000     4.090000000
C    -3.090000000    -2.290000000     2.987000000
C    -3.817000000    -1.219000000     2.473000000
H    -3.754000000    -0.269000000     2.997000000
C    -4.449000000    -1.301000000     1.230000000
O    -5.019000000    -0.126000000     0.719000000
C    -4.284000000    -2.477000000     0.427000000
C    -4.824000000    -2.472000000    -0.978000000
H    -4.977000000    -3.512000000    -1.271000000
C    -4.002000000    -1.799000000    -2.058000000
C    -3.163000000    -2.676000000    -2.785000000
H    -3.105000000    -3.742000000    -2.577000000
H    -5.814000000    -2.018000000    -0.890000000
C    -3.473000000    -3.483000000     0.849000000
H    -3.296000000    -4.311000000     0.168000000
C    -2.909000000    -3.414000000     2.166000000
C    -1.936000000    -4.575000000     2.508000000
H    -2.259000000    -5.534000000     2.099000000
H    -1.847000000    -4.748000000     3.583000000
C    -0.473000000    -4.263000000     2.118000000
C    -0.068000000    -4.731000000     0.869000000
H    -0.747000000    -5.192000000     0.157000000
C     0.458000000    -3.588000000     2.942000000
C     1.819000000    -3.493000000     2.552000000
H     2.550000000    -2.951000000     3.147000000
C     2.200000000    -3.924000000     1.260000000
O     3.448000000    -3.496000000     0.855000000
C     3.553000000    -2.545000000    -0.209000000
C     4.699000000    -1.639000000     0.025000000
C     5.172000000    -0.818000000    -0.982000000
H     4.739000000    -0.831000000    -1.979000000
C     5.265000000    -1.565000000     1.295000000
H     4.807000000    -2.076000000     2.138000000
O     3.605000000    -3.130000000    -1.511000000
H     2.676000000    -1.882000000    -0.199000000
C     1.215000000    -4.533000000     0.430000000
C     1.603000000    -5.133000000    -0.927000000
H     0.922000000    -5.957000000    -1.150000000
H     2.588000000    -5.600000000    -0.852000000
C     1.458000000    -4.090000000    -1.971000000
C     0.309000000    -4.095000000    -2.719000000
H    -0.430000000    -4.875000000    -2.562000000
C     2.460000000    -3.170000000    -2.273000000
C     2.259000000    -2.150000000    -3.235000000
H     2.993000000    -1.395000000    -3.502000000
C     1.074000000    -2.085000000    -3.904000000
O     0.856000000    -1.027000000    -4.745000000
C     0.010000000     0.059000000    -4.257000000
C     0.591000000     1.443000000    -4.504000000
C     1.924000000     1.673000000    -4.447000000
H     2.544000000     0.808000000    -4.224000000
C    -0.265000000     2.508000000    -4.847000000
H    -1.333000000     2.307000000    -4.832000000
O    -1.368000000    -0.094000000    -4.746000000
H    -0.062000000    -0.171000000    -3.184000000
C     0.066000000    -3.047000000    -3.622000000
C    -1.276000000    -2.968000000    -4.435000000
H    -1.730000000    -3.921000000    -4.716000000
H    -1.055000000    -2.604000000    -5.441000000
C    -2.382000000    -2.068000000    -3.795000000
C    -2.348000000    -0.709000000    -3.969000000
C    -3.127000000     0.147000000    -3.208000000
H    -3.206000000     1.224000000    -3.333000000
C    -3.968000000    -0.424000000    -2.264000000
O    -4.668000000     0.463000000    -1.512000000
C    -4.276000000     0.641000000    -0.126000000
H    -3.192000000     0.507000000     0.008000000
C    -4.324000000     2.177000000     0.214000000
C    -4.608000000     2.661000000     1.446000000
H    -4.906000000     1.923000000     2.187000000
C    -3.985000000     3.086000000    -0.850000000
H    -3.681000000     2.674000000    -1.809000000
C    -3.864000000     4.447000000    -0.566000000
O    -3.602000000     5.413000000    -1.514000000
C    -4.134000000     4.946000000     0.719000000
H    -3.914000000     5.979000000     0.978000000
C    -4.571000000     4.036000000     1.729000000
O    -4.742000000     4.476000000     3.064000000
C    -4.404000000     3.704000000     4.159000000
C    -3.104000000     3.283000000     4.362000000
H    -2.347000000     3.522000000     3.619000000
C    -5.416000000     3.455000000     5.075000000
H    -6.421000000     3.750000000     4.784000000
C    -5.116000000     2.990000000     6.387000000
H    -5.874000000     2.930000000     7.164000000
C    -3.761000000     2.646000000     6.629000000
H    -3.520000000     2.260000000     7.617000000
C    -2.801000000     2.774000000     5.634000000
O    -1.488000000     2.607000000     6.047000000
C    -0.642000000     1.622000000     5.538000000
C     0.726000000     1.690000000     5.814000000
H     1.130000000     2.500000000     6.416000000
C     1.637000000     0.713000000     5.282000000
O     2.996000000     0.793000000     5.626000000
C     3.986000000    -0.073000000     5.357000000
C     4.805000000     0.128000000     4.297000000
H     4.633000000     0.946000000     3.602000000
C     4.270000000    -1.163000000     6.223000000
H     3.733000000    -1.195000000     7.167000000
C     5.215000000    -2.135000000     5.892000000
H     5.329000000    -3.032000000     6.495000000
C     6.060000000    -1.870000000     4.841000000
H     6.916000000    -2.540000000     4.843000000
C     5.890000000    -0.735000000     4.103000000
O     6.726000000    -0.562000000     2.971000000
C     6.307000000    -0.693000000     1.618000000
C     6.860000000     0.087000000     0.607000000
H     7.644000000     0.783000000     0.893000000
C     6.233000000     0.066000000    -0.668000000
O     6.649000000     0.925000000    -1.617000000
C     6.141000000     1.006000000    -2.882000000
C     5.147000000     1.958000000    -3.158000000
H     4.696000000     2.553000000    -2.367000000
C     6.473000000     0.045000000    -3.863000000
H     7.150000000    -0.773000000    -3.629000000
C     5.968000000     0.106000000    -5.138000000
H     6.215000000    -0.658000000    -5.870000000
C     5.164000000     1.165000000    -5.487000000
H     4.866000000     1.289000000    -6.525000000
C     4.754000000     2.158000000    -4.495000000
O     3.809000000     3.159000000    -4.755000000
C     2.490000000     2.890000000    -4.717000000
C     1.626000000     4.018000000    -4.899000000
H     2.006000000     5.025000000    -5.047000000
C     0.243000000     3.781000000    -4.980000000
O    -0.583000000     4.857000000    -5.046000000
C    -1.889000000     4.849000000    -4.591000000
C    -2.982000000     4.784000000    -5.473000000
H    -2.667000000     4.537000000    -6.483000000
C    -4.320000000     4.900000000    -5.068000000
H    -5.223000000     4.675000000    -5.631000000
C    -4.474000000     5.256000000    -3.740000000
H    -5.466000000     5.382000000    -3.313000000
C    -3.438000000     5.158000000    -2.795000000
C    -2.106000000     4.999000000    -3.239000000
H    -1.310000000     5.227000000    -2.535000000
C     0.418000000     2.483000000    -1.294000000
H    -0.151000000     3.168000000    -1.916000000
C    -0.031000000     1.188000000    -0.984000000
H    -0.853000000     0.699000000    -1.499000000
C     0.680000000     0.302000000    -0.161000000
H     0.292000000    -0.613000000     0.162000000
C     1.951000000     0.670000000     0.255000000
H     2.612000000     0.021000000     0.825000000
C     2.500000000     1.908000000    -0.093000000
H     3.511000000     2.197000000     0.183000000
C     1.748000000     2.848000000    -0.891000000
C     2.249000000     4.259000000    -1.213000000
O     3.376000000     4.601000000    -0.849000000
O     1.450000000     5.025000000    -1.673000000
O     3.766000000     9.428000000     1.903000000
H     4.562000000     8.912000000     1.773000000
H     3.111000000     9.001000000     1.352000000
O     0.630000000     7.306000000    -3.972000000
H     0.419000000     6.373000000    -3.956000000
H     1.580000000     7.339000000    -3.856000000
O     7.553000000     3.749000000    -1.692000000
H     7.865000000     2.873000000    -1.464000000
H     6.815000000     3.901000000    -1.102000000
O    -0.165000000     2.923000000     2.347000000
H     0.194000000     2.488000000     1.574000000
H     0.032000000     2.327000000     3.070000000
O    -2.095000000     8.202000000    -1.125000000
H    -1.428000000     8.870000000    -1.281000000
H    -2.598000000     8.172000000    -1.939000000
O     3.098000000     5.337000000    -7.685000000
H     3.217000000     5.666000000    -6.793000000
H     2.863000000     6.112000000    -8.196000000
O     2.992000000     7.115000000    -2.095000000
H     2.441000000     6.333000000    -2.121000000
H     3.420000000     7.078000000    -1.239000000
O     4.378000000     3.888000000     2.720000000
H     3.742000000     3.414000000     3.256000000
H     4.198000000     4.811000000     2.894000000
O     2.780000000     6.635000000     0.997000000
H     2.981000000     5.891000000     0.428000000
H     1.850000000     6.804000000     0.851000000
O     7.601000000     6.245000000     0.674000000
H     7.990000000     6.345000000    -0.195000000
H     7.082000000     5.444000000     0.613000000
O     1.389000000     5.237000000     4.862000000
H     0.634000000     5.596000000     4.395000000
H     1.095000000     5.160000000     5.770000000
O    -0.091000000     6.371000000     0.016000000
H     0.291000000     5.865000000    -0.701000000
H    -0.860000000     6.791000000    -0.369000000
O     3.256000000     9.413000000    -3.904000000
H     3.050000000     8.774000000    -3.222000000
H     3.466000000    10.215000000    -3.425000000
O     3.918000000     6.579000000    -5.469000000
H     4.368000000     7.411000000    -5.612000000
H     4.481000000     6.104000000    -4.857000000
O     8.119000000     6.655000000    -2.366000000
H     8.496000000     5.816000000    -2.630000000
H     7.236000000     6.648000000    -2.738000000
O    -0.760000000     5.580000000     2.542000000
H    -0.261000000     5.870000000     1.778000000
H    -0.612000000     4.635000000     2.579000000
O     5.521000000     5.232000000    -3.423000000
H     6.278000000     4.689000000    -3.205000000
H     5.103000000     5.410000000    -2.581000000
O     3.641000000     6.338000000     3.926000000
H     2.862000000     5.932000000     4.306000000
H     3.403000000     6.507000000     3.015000000
O     5.730000000     4.334000000     0.518000000
H     5.399000000     4.004000000     1.354000000
H     4.951000000     4.421000000    -0.030000000
