215
-1471.61606
C     0.080000000    -0.250000000     4.748000000
H     0.988000000    -0.575000000     4.246000000
C    -1.144000000    -0.925000000     4.530000000
C    -2.332000000    -0.354000000     5.031000000
H    -3.282000000    -0.835000000     4.809000000
C    -1.232000000    -2.116000000     3.612000000
O    -0.218000000    -3.044000000     3.904000000
H    -0.999000000    -1.667000000     2.635000000
O    -2.463000000    -2.727000000     3.549000000
C    -2.968000000    -3.104000000     2.348000000
C    -3.884000000    -2.289000000     1.677000000
H    -4.441000000    -1.505000000     2.185000000
C    -4.206000000    -2.427000000     0.350000000
O    -4.912000000    -1.357000000    -0.184000000
C    -3.579000000    -3.406000000    -0.410000000
C    -3.872000000    -3.449000000    -1.939000000
H    -3.737000000    -4.454000000    -2.343000000
C    -3.072000000    -2.537000000    -2.827000000
C    -1.907000000    -3.095000000    -3.402000000
H    -1.591000000    -4.091000000    -3.104000000
H    -4.946000000    -3.320000000    -2.087000000
C    -2.781000000    -4.347000000     0.238000000
H    -2.276000000    -5.108000000    -0.351000000
C    -2.430000000    -4.196000000     1.597000000
C    -1.374000000    -5.045000000     2.125000000
H    -1.355000000    -6.073000000     1.756000000
H    -1.513000000    -5.221000000     3.194000000
C     0.022000000    -4.481000000     1.918000000
C     0.727000000    -4.718000000     0.729000000
H     0.216000000    -5.227000000    -0.084000000
C     0.577000000    -3.608000000     2.860000000
C     1.854000000    -3.118000000     2.646000000
H     2.281000000    -2.463000000     3.400000000
C     2.593000000    -3.457000000     1.502000000
O     3.840000000    -2.891000000     1.317000000
C     4.041000000    -1.805000000     0.323000000
C     4.945000000    -0.664000000     0.768000000
C     5.639000000     0.124000000    -0.157000000
H     5.679000000    -0.169000000    -1.203000000
C     4.956000000    -0.307000000     2.094000000
H     4.334000000    -0.848000000     2.802000000
O     4.442000000    -2.388000000    -0.983000000
H     3.043000000    -1.354000000     0.224000000
C     2.015000000    -4.296000000     0.557000000
C     2.625000000    -4.694000000    -0.776000000
H     2.231000000    -5.661000000    -1.096000000
H     3.654000000    -4.899000000    -0.472000000
C     2.562000000    -3.632000000    -1.859000000
C     1.588000000    -3.813000000    -2.817000000
H     0.938000000    -4.683000000    -2.755000000
C     3.443000000    -2.536000000    -1.911000000
C     3.247000000    -1.607000000    -2.960000000
H     3.898000000    -0.736000000    -2.982000000
C     2.187000000    -1.692000000    -3.854000000
O     1.868000000    -0.607000000    -4.670000000
C     0.723000000     0.219000000    -4.278000000
C     1.088000000     1.727000000    -4.272000000
C     2.373000000     2.151000000    -3.958000000
H     3.209000000     1.494000000    -3.731000000
C     0.068000000     2.621000000    -4.623000000
H    -0.907000000     2.275000000    -4.956000000
O    -0.468000000    -0.164000000    -5.104000000
H     0.531000000    -0.063000000    -3.232000000
C     1.368000000    -2.828000000    -3.798000000
C     0.219000000    -3.009000000    -4.758000000
H     0.150000000    -4.076000000    -4.977000000
H     0.467000000    -2.525000000    -5.705000000
C    -1.058000000    -2.385000000    -4.205000000
C    -1.362000000    -1.032000000    -4.463000000
C    -2.510000000    -0.497000000    -3.951000000
H    -2.784000000     0.537000000    -4.146000000
C    -3.392000000    -1.208000000    -3.109000000
O    -4.464000000    -0.621000000    -2.504000000
C    -4.185000000    -0.416000000    -1.121000000
H    -3.097000000    -0.522000000    -0.999000000
C    -4.526000000     0.993000000    -0.725000000
C    -5.060000000     1.239000000     0.568000000
H    -5.462000000     0.527000000     1.284000000
C    -3.978000000     2.080000000    -1.418000000
H    -3.486000000     1.861000000    -2.362000000
C    -4.071000000     3.366000000    -0.935000000
O    -3.525000000     4.520000000    -1.549000000
C    -4.696000000     3.569000000     0.284000000
H    -4.749000000     4.583000000     0.674000000
C    -5.170000000     2.539000000     1.002000000
O    -5.805000000     2.853000000     2.209000000
C    -5.722000000     2.122000000     3.365000000
C    -4.515000000     1.993000000     4.149000000
H    -3.523000000     2.285000000     3.814000000
C    -6.923000000     1.681000000     3.926000000
H    -7.829000000     1.827000000     3.344000000
C    -6.937000000     1.099000000     5.229000000
H    -7.823000000     0.604000000     5.618000000
C    -5.754000000     0.962000000     5.930000000
H    -5.824000000     0.573000000     6.943000000
C    -4.575000000     1.488000000     5.471000000
O    -3.456000000     1.361000000     6.246000000
C    -2.292000000     0.833000000     5.781000000
C    -1.054000000     1.316000000     6.236000000
H    -0.909000000     2.200000000     6.852000000
C     0.109000000     0.752000000     5.692000000
O     1.243000000     1.449000000     5.937000000
C     2.486000000     0.947000000     5.769000000
C     3.364000000     1.429000000     4.803000000
H     3.062000000     2.211000000     4.112000000
C     2.845000000    -0.093000000     6.588000000
H     2.151000000    -0.510000000     7.314000000
C     4.092000000    -0.692000000     6.469000000
H     4.259000000    -1.588000000     7.062000000
C     5.062000000    -0.144000000     5.611000000
H     6.116000000    -0.409000000     5.630000000
C     4.654000000     0.892000000     4.769000000
O     5.603000000     1.219000000     3.841000000
C     5.644000000     0.822000000     2.553000000
C     6.344000000     1.609000000     1.688000000
H     6.846000000     2.500000000     2.056000000
C     6.349000000     1.240000000     0.319000000
O     7.130000000     1.955000000    -0.544000000
C     6.725000000     2.342000000    -1.831000000
C     5.539000000     3.050000000    -1.971000000
H     4.994000000     3.180000000    -1.039000000
C     7.448000000     1.972000000    -2.999000000
H     8.368000000     1.417000000    -2.834000000
C     6.907000000     2.255000000    -4.248000000
H     7.422000000     2.019000000    -5.176000000
C     5.756000000     3.037000000    -4.331000000
H     5.385000000     3.199000000    -5.340000000
C     5.030000000     3.466000000    -3.180000000
O     3.843000000     4.111000000    -3.459000000
C     2.600000000     3.552000000    -3.862000000
C     1.609000000     4.400000000    -4.360000000
H     1.779000000     5.473000000    -4.346000000
C     0.361000000     3.955000000    -4.696000000
O    -0.567000000     4.896000000    -5.134000000
C    -1.820000000     4.810000000    -4.661000000
C    -2.847000000     4.756000000    -5.510000000
H    -2.607000000     4.876000000    -6.563000000
C    -4.148000000     4.714000000    -5.083000000
H    -4.914000000     4.817000000    -5.847000000
C    -4.398000000     4.714000000    -3.734000000
H    -5.404000000     4.616000000    -3.334000000
C    -3.365000000     4.719000000    -2.856000000
C    -2.071000000     4.883000000    -3.290000000
H    -1.292000000     4.826000000    -2.534000000
C     1.151000000     2.814000000    -0.625000000
H     1.196000000     3.627000000    -1.345000000
C     0.341000000     1.720000000    -0.673000000
H    -0.526000000     1.716000000    -1.329000000
C     0.558000000     0.580000000     0.159000000
H    -0.118000000    -0.278000000     0.181000000
C     1.660000000     0.626000000     0.949000000
H     1.957000000    -0.201000000     1.588000000
C     2.394000000     1.784000000     1.123000000
H     3.202000000     1.768000000     1.851000000
C     2.170000000     2.867000000     0.345000000
C     2.937000000     4.083000000     0.543000000
O     3.810000000     4.088000000     1.427000000
O     2.602000000     5.147000000     0.047000000
O     3.122000000     7.733000000     0.768000000
H     3.415000000     6.830000000     0.644000000
H     2.318000000     7.656000000     1.282000000
O     1.425000000     6.790000000    -1.827000000
H     0.933000000     7.335000000    -1.213000000
H     1.841000000     6.126000000    -1.277000000
O     6.634000000     7.404000000    -3.118000000
H     5.880000000     7.146000000    -2.587000000
H     7.377000000     6.958000000    -2.712000000
O     8.507000000     6.007000000    -1.508000000
H     9.375000000     5.621000000    -1.625000000
H     7.914000000     5.256000000    -1.478000000
O    -0.098000000     3.585000000     3.689000000
H     0.245000000     2.952000000     4.320000000
H     0.206000000     4.433000000     4.012000000
O     4.417000000     6.367000000    -1.723000000
H     4.073000000     5.762000000    -1.066000000
H     4.373000000     5.879000000    -2.545000000
O     3.645000000     5.640000000     3.565000000
H     4.383000000     5.168000000     3.951000000
H     3.459000000     5.172000000     2.752000000
O     1.167000000     5.757000000     4.381000000
H     1.198000000     5.952000000     5.317000000
H     2.084000000     5.649000000     4.128000000
O    -1.900000000     6.705000000    -0.420000000
H    -2.158000000     6.172000000    -1.171000000
H    -1.078000000     6.315000000    -0.121000000
O     9.095000000     4.456000000     1.527000000
H     9.291000000     3.525000000     1.424000000
H     8.213000000     4.557000000     1.171000000
O     0.071000000     8.650000000    -0.166000000
H     0.361000000     8.322000000     0.685000000
H    -0.789000000     8.249000000    -0.298000000
O     0.034000000     5.413000000     0.825000000
H     0.976000000     5.437000000     0.660000000
H    -0.057000000     4.883000000     1.617000000
O     2.334000000     8.101000000    -4.053000000
H     3.081000000     8.630000000    -3.772000000
H     2.041000000     7.659000000    -3.256000000
O     6.869000000     7.509000000     2.151000000
H     7.486000000     7.792000000     1.476000000
H     6.160000000     8.151000000     2.112000000
O    -2.575000000     4.333000000     2.556000000
H    -1.787000000     4.003000000     2.987000000
H    -2.631000000     3.831000000     1.743000000
O     4.847000000     9.431000000     1.950000000
H     4.305000000     8.943000000     1.331000000
H     4.222000000     9.812000000     2.567000000
O     0.951000000     7.842000000     2.529000000
H     1.009000000     7.060000000     3.078000000
H     0.527000000     8.495000000     3.086000000
O     3.445000000     8.149000000     4.953000000
H     3.453000000     7.375000000     4.389000000
H     4.356000000     8.257000000     5.225000000
O     6.335000000     4.780000000     1.100000000
H     6.240000000     5.678000000     1.417000000
H     5.443000000     4.436000000     1.084000000
