215
-1458.55128
C    -0.484000000     0.868000000     5.149000000
H     0.381000000     0.217000000     5.048000000
C    -1.536000000     0.496000000     4.417000000
C    -2.636000000     1.337000000     4.270000000
H    -3.486000000     0.930000000     3.730000000
C    -1.627000000    -0.940000000     3.827000000
O    -0.896000000    -1.923000000     4.628000000
H    -1.126000000    -0.827000000     2.854000000
O    -2.963000000    -1.472000000     3.701000000
C    -3.223000000    -1.923000000     2.462000000
C    -3.795000000    -1.093000000     1.492000000
H    -4.089000000    -0.067000000     1.698000000
C    -3.965000000    -1.620000000     0.226000000
O    -4.569000000    -0.805000000    -0.714000000
C    -3.610000000    -2.924000000    -0.144000000
C    -3.986000000    -3.484000000    -1.513000000
H    -4.102000000    -4.568000000    -1.457000000
C    -2.923000000    -3.050000000    -2.557000000
C    -1.823000000    -3.847000000    -2.769000000
H    -1.799000000    -4.816000000    -2.278000000
H    -4.990000000    -3.095000000    -1.696000000
C    -2.978000000    -3.720000000     0.806000000
H    -2.714000000    -4.747000000     0.567000000
C    -2.768000000    -3.237000000     2.160000000
C    -2.159000000    -4.143000000     3.174000000
H    -2.391000000    -5.165000000     2.866000000
H    -2.534000000    -3.864000000     4.161000000
C    -0.679000000    -3.857000000     3.177000000
C     0.131000000    -4.591000000     2.308000000
H    -0.314000000    -5.345000000     1.664000000
C    -0.120000000    -2.784000000     3.903000000
C     1.280000000    -2.511000000     3.839000000
H     1.598000000    -1.755000000     4.553000000
C     2.065000000    -3.255000000     2.947000000
O     3.313000000    -2.794000000     2.784000000
C     3.524000000    -1.952000000     1.611000000
C     4.534000000    -0.774000000     1.872000000
C     5.330000000    -0.236000000     0.868000000
H     5.329000000    -0.758000000    -0.085000000
C     4.306000000    -0.046000000     3.069000000
H     3.416000000    -0.210000000     3.672000000
O     4.039000000    -2.713000000     0.480000000
H     2.536000000    -1.540000000     1.355000000
C     1.494000000    -4.369000000     2.214000000
C     2.315000000    -5.003000000     1.095000000
H     2.004000000    -6.042000000     0.972000000
H     3.333000000    -5.101000000     1.477000000
C     2.275000000    -4.219000000    -0.273000000
C     1.394000000    -4.548000000    -1.289000000
H     0.758000000    -5.417000000    -1.145000000
C     3.152000000    -3.123000000    -0.486000000
C     3.227000000    -2.497000000    -1.732000000
H     3.955000000    -1.706000000    -1.892000000
C     2.286000000    -2.800000000    -2.714000000
O     2.275000000    -2.119000000    -3.902000000
C     1.201000000    -1.206000000    -4.095000000
C     1.607000000     0.179000000    -4.597000000
C     2.828000000     0.701000000    -4.190000000
H     3.466000000     0.049000000    -3.599000000
C     0.788000000     0.964000000    -5.389000000
H    -0.226000000     0.640000000    -5.606000000
O     0.211000000    -1.776000000    -4.887000000
H     0.730000000    -1.066000000    -3.111000000
C     1.457000000    -3.902000000    -2.521000000
C     0.472000000    -4.363000000    -3.614000000
H     0.132000000    -5.398000000    -3.539000000
H     0.930000000    -4.439000000    -4.602000000
C    -0.794000000    -3.491000000    -3.601000000
C    -0.873000000    -2.275000000    -4.274000000
C    -1.913000000    -1.424000000    -4.056000000
H    -1.964000000    -0.453000000    -4.541000000
C    -2.954000000    -1.827000000    -3.223000000
O    -3.857000000    -0.780000000    -2.991000000
C    -3.746000000    -0.129000000    -1.719000000
H    -2.699000000    -0.187000000    -1.387000000
C    -4.142000000     1.377000000    -1.748000000
C    -4.551000000     2.128000000    -0.638000000
H    -4.619000000     1.671000000     0.346000000
C    -3.748000000     2.064000000    -2.886000000
H    -3.516000000     1.553000000    -3.818000000
C    -3.888000000     3.425000000    -2.964000000
O    -3.518000000     4.108000000    -4.081000000
C    -4.493000000     4.159000000    -1.905000000
H    -4.858000000     5.174000000    -2.047000000
C    -4.763000000     3.516000000    -0.702000000
O    -5.111000000     4.296000000     0.391000000
C    -5.356000000     3.805000000     1.631000000
C    -4.413000000     3.780000000     2.657000000
H    -3.375000000     4.091000000     2.567000000
C    -6.553000000     3.254000000     1.878000000
H    -7.292000000     3.300000000     1.082000000
C    -6.983000000     2.751000000     3.097000000
H    -8.007000000     2.450000000     3.302000000
C    -6.041000000     2.794000000     4.131000000
H    -6.344000000     2.573000000     5.152000000
C    -4.786000000     3.277000000     3.942000000
O    -3.772000000     3.454000000     4.842000000
C    -2.644000000     2.625000000     4.814000000
C    -1.588000000     3.015000000     5.611000000
H    -1.608000000     3.912000000     6.225000000
C    -0.488000000     2.140000000     5.725000000
O     0.516000000     2.586000000     6.544000000
C     1.838000000     2.059000000     6.506000000
C     2.653000000     2.199000000     5.380000000
H     2.187000000     2.674000000     4.520000000
C     2.372000000     1.522000000     7.705000000
H     1.700000000     1.534000000     8.559000000
C     3.744000000     1.217000000     7.709000000
H     4.182000000     0.792000000     8.608000000
C     4.540000000     1.395000000     6.584000000
H     5.599000000     1.153000000     6.576000000
C     3.968000000     1.778000000     5.396000000
O     4.673000000     2.042000000     4.262000000
C     5.049000000     1.111000000     3.330000000
C     5.867000000     1.641000000     2.343000000
H     6.411000000     2.560000000     2.545000000
C     5.986000000     0.963000000     1.146000000
O     6.799000000     1.629000000     0.224000000
C     6.703000000     1.518000000    -1.160000000
C     5.638000000     2.136000000    -1.801000000
H     4.900000000     2.641000000    -1.183000000
C     7.702000000     0.873000000    -1.959000000
H     8.586000000     0.653000000    -1.367000000
C     7.587000000     0.876000000    -3.347000000
H     8.330000000     0.368000000    -3.956000000
C     6.451000000     1.334000000    -3.975000000
H     6.403000000     1.304000000    -5.061000000
C     5.477000000     2.040000000    -3.206000000
O     4.386000000     2.614000000    -3.857000000
C     3.335000000     1.995000000    -4.505000000
C     2.506000000     2.747000000    -5.301000000
H     2.746000000     3.802000000    -5.407000000
C     1.218000000     2.293000000    -5.645000000
O     0.449000000     3.009000000    -6.504000000
C    -0.965000000     3.095000000    -6.459000000
C    -1.724000000     2.654000000    -7.527000000
H    -1.323000000     2.332000000    -8.484000000
C    -3.095000000     2.596000000    -7.394000000
H    -3.710000000     2.229000000    -8.211000000
C    -3.724000000     3.078000000    -6.216000000
H    -4.802000000     3.153000000    -6.099000000
C    -2.935000000     3.574000000    -5.195000000
C    -1.577000000     3.452000000    -5.266000000
H    -0.952000000     3.758000000    -4.430000000
C    -0.196000000     2.646000000    -1.580000000
H    -0.533000000     3.156000000    -2.479000000
C    -0.366000000     1.255000000    -1.444000000
H    -0.907000000     0.725000000    -2.224000000
C     0.204000000     0.646000000    -0.359000000
H     0.036000000    -0.479000000    -0.274000000
C     0.838000000     1.371000000     0.667000000
H     1.259000000     0.836000000     1.514000000
C     0.913000000     2.780000000     0.630000000
H     1.442000000     3.381000000     1.365000000
C     0.489000000     3.408000000    -0.574000000
C     0.736000000     4.905000000    -0.803000000
O     1.433000000     5.546000000    -0.051000000
O     0.211000000     5.426000000    -1.761000000
O    -1.712000000     7.671000000     2.536000000
H    -1.773000000     8.380000000     1.896000000
H    -0.898000000     7.218000000     2.314000000
O     4.184000000     5.406000000     0.011000000
H     3.275000000     5.530000000     0.286000000
H     4.591000000     6.263000000     0.136000000
O     4.872000000     8.335000000    -3.053000000
H     4.869000000     7.378000000    -3.052000000
H     5.045000000     8.574000000    -3.963000000
O     0.475000000     6.414000000    -5.754000000
H     0.891000000     6.472000000    -4.894000000
H     0.329000000     5.478000000    -5.887000000
O     0.384000000     5.855000000     2.492000000
H     1.013000000     5.664000000     3.188000000
H     0.841000000     5.623000000     1.684000000
O    -0.425000000     9.525000000    -0.063000000
H     0.298000000     8.935000000     0.148000000
H    -0.655000000     9.309000000    -0.966000000
O     1.900000000     8.866000000     2.851000000
H     1.466000000     8.048000000     2.609000000
H     1.457000000     9.143000000     3.653000000
O    -0.177000000     7.986000000    -2.274000000
H     0.752000000     8.204000000    -2.345000000
H    -0.192000000     7.037000000    -2.152000000
O     2.399000000     9.306000000    -2.573000000
H     2.304000000     9.131000000    -1.637000000
H     3.212000000     8.864000000    -2.818000000
O    -3.497000000     8.697000000    -0.139000000
H    -4.223000000     8.835000000    -0.747000000
H    -2.941000000     8.050000000    -0.572000000
O     4.566000000     5.641000000    -2.739000000
H     5.429000000     5.311000000    -2.489000000
H     4.061000000     5.633000000    -1.926000000
O     7.049000000     4.963000000     0.220000000
H     7.032000000     5.621000000    -0.474000000
H     6.155000000     4.621000000     0.248000000
O     1.969000000     8.170000000    -0.043000000
H     2.049000000     8.475000000     0.861000000
H     1.785000000     7.234000000     0.035000000
O     1.977000000     6.454000000     4.824000000
H     2.803000000     5.979000000     4.733000000
H     2.194000000     7.211000000     5.369000000
O     5.451000000     7.806000000     0.271000000
H     5.531000000     8.413000000    -0.465000000
H     5.121000000     8.345000000     0.990000000
O     4.573000000     8.944000000     2.996000000
H     4.835000000     9.792000000     2.638000000
H     3.624000000     8.915000000     2.875000000
O    -2.291000000     6.051000000    -0.812000000
H    -1.472000000     5.747000000    -1.204000000
H    -2.511000000     5.380000000    -0.167000000
O    -2.821000000     7.866000000    -3.534000000
H    -2.255000000     7.168000000    -3.204000000
H    -2.426000000     8.672000000    -3.201000000
O     2.050000000     5.942000000    -3.669000000
H     1.491000000     5.541000000    -3.003000000
H     2.941000000     5.809000000    -3.344000000
