215
-1442.27172
C    -3.187000000    -3.644000000     0.410000000
H    -3.241000000    -3.643000000    -0.676000000
C    -3.369000000    -2.385000000     1.074000000
C    -3.246000000    -2.351000000     2.435000000
H    -3.438000000    -1.405000000     2.935000000
C    -3.865000000    -1.066000000     0.339000000
O    -4.731000000    -1.489000000    -0.772000000
H    -2.935000000    -0.619000000    -0.041000000
O    -4.588000000    -0.231000000     1.264000000
C    -4.247000000     1.045000000     1.253000000
C    -3.414000000     1.539000000     2.214000000
H    -3.192000000     0.957000000     3.105000000
C    -2.834000000     2.804000000     2.035000000
O    -1.977000000     3.183000000     3.099000000
C    -3.048000000     3.614000000     0.932000000
C    -2.493000000     5.027000000     0.715000000
H    -3.177000000     5.540000000     0.036000000
C    -1.055000000     5.006000000     0.281000000
C    -0.762000000     4.893000000    -1.104000000
H    -1.577000000     4.882000000    -1.822000000
H    -2.618000000     5.503000000     1.689000000
C    -3.942000000     3.106000000    -0.016000000
H    -4.316000000     3.666000000    -0.869000000
C    -4.550000000     1.844000000     0.111000000
C    -5.428000000     1.256000000    -1.090000000
H    -5.940000000     2.069000000    -1.610000000
H    -6.225000000     0.663000000    -0.636000000
C    -4.659000000     0.460000000    -2.160000000
C    -4.017000000     1.130000000    -3.256000000
H    -4.219000000     2.180000000    -3.454000000
C    -4.405000000    -0.894000000    -1.943000000
C    -3.554000000    -1.513000000    -2.863000000
H    -3.445000000    -2.586000000    -2.725000000
C    -2.954000000    -0.871000000    -3.950000000
O    -2.020000000    -1.471000000    -4.715000000
C    -0.725000000    -1.434000000    -4.136000000
C    -0.065000000    -2.772000000    -4.110000000
C     1.343000000    -2.973000000    -4.085000000
H     2.008000000    -2.128000000    -4.244000000
C    -0.849000000    -3.899000000    -4.092000000
H    -1.928000000    -3.775000000    -4.056000000
O     0.059000000    -0.588000000    -5.074000000
H    -0.800000000    -1.037000000    -3.113000000
C    -3.136000000     0.507000000    -4.061000000
C    -2.342000000     1.295000000    -5.137000000
H    -2.862000000     2.250000000    -5.238000000
H    -2.290000000     0.769000000    -6.093000000
C    -0.937000000     1.601000000    -4.576000000
C    -0.723000000     2.887000000    -4.018000000
H    -1.544000000     3.599000000    -4.039000000
C     0.167000000     0.678000000    -4.611000000
C     1.403000000     1.019000000    -4.104000000
H     2.247000000     0.344000000    -4.216000000
C     1.545000000     2.301000000    -3.487000000
O     2.687000000     2.576000000    -2.716000000
C     2.661000000     2.804000000    -1.257000000
C     3.763000000     1.995000000    -0.585000000
C     3.878000000     0.626000000    -0.848000000
H     3.161000000     0.153000000    -1.513000000
C     4.626000000     2.564000000     0.390000000
H     4.592000000     3.639000000     0.549000000
O     2.834000000     4.249000000    -0.987000000
H     1.815000000     2.382000000    -0.696000000
C     0.568000000     3.282000000    -3.584000000
C     0.809000000     4.702000000    -3.039000000
H     0.123000000     5.347000000    -3.593000000
H     1.774000000     5.043000000    -3.419000000
C     0.545000000     4.785000000    -1.550000000
C     1.588000000     4.657000000    -0.627000000
C     1.268000000     4.612000000     0.777000000
H     1.994000000     4.350000000     1.543000000
C     0.008000000     4.811000000     1.189000000
O    -0.103000000     4.485000000     2.510000000
C    -0.543000000     3.157000000     2.853000000
H    -0.313000000     2.471000000     2.024000000
C     0.225000000     2.487000000     3.974000000
C    -0.140000000     1.287000000     4.518000000
H    -1.054000000     0.777000000     4.225000000
C     1.453000000     3.050000000     4.395000000
H     1.746000000     4.026000000     4.018000000
C     2.293000000     2.454000000     5.303000000
O     3.497000000     3.012000000     5.816000000
C     1.945000000     1.176000000     5.851000000
H     2.615000000     0.674000000     6.544000000
C     0.677000000     0.651000000     5.500000000
O     0.454000000    -0.664000000     5.783000000
C    -0.772000000    -1.269000000     6.000000000
C    -1.339000000    -2.141000000     5.072000000
H    -0.826000000    -2.344000000     4.136000000
C    -1.431000000    -1.018000000     7.179000000
H    -0.866000000    -0.500000000     7.950000000
C    -2.693000000    -1.566000000     7.405000000
H    -3.096000000    -1.328000000     8.386000000
C    -3.310000000    -2.357000000     6.489000000
H    -4.271000000    -2.824000000     6.686000000
C    -2.576000000    -2.632000000     5.355000000
O    -3.170000000    -3.576000000     4.490000000
C    -3.121000000    -3.566000000     3.160000000
C    -2.809000000    -4.728000000     2.478000000
H    -2.618000000    -5.674000000     2.979000000
C    -2.862000000    -4.789000000     1.108000000
O    -2.757000000    -6.001000000     0.535000000
C    -3.011000000    -6.232000000    -0.816000000
C    -1.940000000    -6.266000000    -1.682000000
H    -0.962000000    -5.984000000    -1.301000000
C    -4.296000000    -6.447000000    -1.323000000
H    -5.180000000    -6.541000000    -0.698000000
C    -4.503000000    -6.665000000    -2.725000000
H    -5.510000000    -6.790000000    -3.116000000
C    -3.419000000    -6.613000000    -3.574000000
H    -3.577000000    -6.712000000    -4.645000000
C    -2.125000000    -6.427000000    -3.038000000
O    -1.067000000    -6.230000000    -3.955000000
C    -0.260000000    -5.144000000    -3.993000000
C     1.065000000    -5.267000000    -3.796000000
H     1.504000000    -6.248000000    -3.632000000
C     1.893000000    -4.188000000    -3.870000000
O     3.270000000    -4.304000000    -3.879000000
C     4.235000000    -3.381000000    -3.453000000
C     4.094000000    -2.625000000    -2.261000000
H     3.186000000    -2.792000000    -1.687000000
C     5.448000000    -3.374000000    -4.211000000
H     5.550000000    -4.023000000    -5.077000000
C     6.561000000    -2.557000000    -3.742000000
H     7.582000000    -2.631000000    -4.107000000
C     6.367000000    -1.805000000    -2.577000000
H     7.199000000    -1.234000000    -2.173000000
C     5.196000000    -1.827000000    -1.888000000
O     5.085000000    -1.489000000    -0.572000000
C     4.801000000    -0.176000000    -0.195000000
C     5.761000000     0.361000000     0.681000000
H     6.590000000    -0.165000000     1.149000000
C     5.572000000     1.718000000     1.037000000
O     6.399000000     2.181000000     2.063000000
C     6.001000000     2.982000000     3.114000000
C     6.749000000     4.113000000     3.432000000
H     7.534000000     4.419000000     2.745000000
C     6.358000000     4.918000000     4.491000000
H     6.831000000     5.842000000     4.812000000
C     5.282000000     4.567000000     5.276000000
H     5.073000000     5.173000000     6.154000000
C     4.505000000     3.439000000     4.939000000
C     4.867000000     2.640000000     3.851000000
H     4.452000000     1.647000000     3.697000000
C     1.734000000    -1.525000000     1.158000000
H     2.560000000    -1.465000000     1.862000000
C     1.174000000    -0.324000000     0.759000000
H     1.584000000     0.617000000     1.115000000
C     0.142000000    -0.319000000    -0.175000000
H    -0.373000000     0.577000000    -0.365000000
C    -0.399000000    -1.447000000    -0.708000000
H    -1.316000000    -1.489000000    -1.290000000
C     0.243000000    -2.683000000    -0.371000000
H    -0.211000000    -3.634000000    -0.637000000
C     1.323000000    -2.741000000     0.561000000
C     1.909000000    -3.999000000     1.108000000
O     1.651000000    -5.071000000     0.589000000
O     2.778000000    -4.087000000     1.972000000
O     2.373000000    -3.798000000     4.649000000
H     2.161000000    -3.847000000     3.717000000
H     3.213000000    -4.250000000     4.727000000
O    -0.855000000    -5.996000000     4.965000000
H    -0.646000000    -5.825000000     4.047000000
H    -0.042000000    -5.808000000     5.435000000
O     1.316000000    -5.711000000     6.349000000
H     1.638000000    -5.457000000     7.215000000
H     1.732000000    -5.094000000     5.748000000
O     6.002000000    -6.588000000     0.089000000
H     5.087000000    -6.493000000    -0.179000000
H     6.499000000    -6.145000000    -0.599000000
O     7.242000000    -5.342000000     4.556000000
H     7.328000000    -5.529000000     3.621000000
H     7.802000000    -5.990000000     4.983000000
O    -0.996000000    -8.484000000    -0.084000000
H    -0.149000000    -8.128000000    -0.352000000
H    -0.778000000    -9.251000000     0.445000000
O     2.136000000    -9.842000000     1.539000000
H     2.985000000    -9.673000000     1.947000000
H     2.129000000    -9.287000000     0.759000000
O     4.439000000    -6.190000000     2.372000000
H     4.911000000    -6.415000000     1.570000000
H     4.028000000    -5.348000000     2.180000000
O     7.419000000    -5.316000000    -1.872000000
H     7.233000000    -4.450000000    -2.236000000
H     8.043000000    -5.705000000    -2.484000000
O    -0.122000000    -6.223000000     2.546000000
H    -0.703000000    -6.185000000     1.787000000
H     0.721000000    -5.907000000     2.220000000
O     8.224000000    -5.089000000     1.546000000
H     8.380000000    -4.307000000     1.015000000
H     7.528000000    -5.556000000     1.085000000
O    -0.932000000    -8.780000000     3.741000000
H    -0.747000000    -7.888000000     4.032000000
H    -1.743000000    -8.705000000     3.238000000
O     5.103000000    -2.959000000     2.599000000
H     4.263000000    -3.374000000     2.402000000
H     5.642000000    -3.130000000     1.827000000
O     4.056000000    -0.643000000     4.206000000
H     3.117000000    -0.790000000     4.320000000
H     4.416000000    -1.515000000     4.041000000
O     3.818000000    -5.529000000    -0.930000000
H     3.344000000    -5.304000000    -1.730000000
H     3.175000000    -5.416000000    -0.230000000
O     1.424000000    -7.945000000    -0.701000000
H     1.758000000    -7.995000000    -1.597000000
H     1.683000000    -7.075000000    -0.397000000
O     3.414000000    -7.929000000     4.376000000
H     2.513000000    -7.617000000     4.291000000
H     3.886000000    -7.489000000     3.669000000
O     4.686000000    -5.270000000     5.243000000
H     5.043000000    -6.036000000     4.793000000
H     5.454000000    -4.744000000     5.467000000
O     2.837000000    -1.897000000     7.305000000
H     2.113000000    -2.080000000     7.905000000
H     2.597000000    -2.347000000     6.495000000
