215
-1441.71441
C    -0.548000000     1.207000000     4.311000000
H     0.232000000     0.484000000     4.534000000
C    -1.851000000     0.810000000     3.961000000
C    -2.811000000     1.830000000     3.888000000
H    -3.789000000     1.567000000     3.492000000
C    -2.092000000    -0.633000000     3.627000000
O    -1.482000000    -1.571000000     4.428000000
H    -1.543000000    -0.640000000     2.674000000
O    -3.425000000    -0.923000000     3.448000000
C    -3.736000000    -1.454000000     2.205000000
C    -4.250000000    -0.632000000     1.241000000
H    -4.525000000     0.374000000     1.549000000
C    -4.433000000    -1.171000000    -0.077000000
O    -4.953000000    -0.321000000    -0.970000000
C    -4.126000000    -2.478000000    -0.365000000
C    -4.350000000    -3.076000000    -1.736000000
H    -4.366000000    -4.157000000    -1.587000000
C    -3.122000000    -2.714000000    -2.612000000
C    -2.005000000    -3.582000000    -2.579000000
H    -1.998000000    -4.470000000    -1.953000000
H    -5.285000000    -2.790000000    -2.222000000
C    -3.648000000    -3.362000000     0.635000000
H    -3.377000000    -4.388000000     0.399000000
C    -3.448000000    -2.838000000     1.889000000
C    -2.862000000    -3.782000000     2.920000000
H    -3.080000000    -4.790000000     2.559000000
H    -3.398000000    -3.573000000     3.847000000
C    -1.343000000    -3.557000000     3.071000000
C    -0.544000000    -4.497000000     2.427000000
H    -1.026000000    -5.218000000     1.771000000
C    -0.766000000    -2.557000000     3.911000000
C     0.676000000    -2.414000000     3.919000000
H     1.110000000    -1.558000000     4.429000000
C     1.469000000    -3.264000000     3.125000000
O     2.800000000    -3.073000000     3.012000000
C     3.457000000    -2.463000000     1.873000000
C     4.594000000    -1.530000000     2.321000000
C     5.442000000    -1.086000000     1.348000000
H     5.311000000    -1.416000000     0.321000000
C     4.671000000    -0.952000000     3.607000000
H     3.876000000    -1.043000000     4.343000000
O     3.935000000    -3.521000000     1.028000000
H     2.842000000    -1.887000000     1.167000000
C     0.883000000    -4.365000000     2.463000000
C     1.674000000    -5.335000000     1.600000000
H     1.095000000    -6.248000000     1.448000000
H     2.585000000    -5.572000000     2.153000000
C     1.964000000    -4.623000000     0.222000000
C     1.075000000    -4.877000000    -0.877000000
H     0.215000000    -5.526000000    -0.730000000
C     3.025000000    -3.765000000    -0.001000000
C     3.214000000    -3.034000000    -1.216000000
H     4.133000000    -2.467000000    -1.344000000
C     2.316000000    -3.154000000    -2.259000000
O     2.466000000    -2.347000000    -3.335000000
C     1.433000000    -1.338000000    -3.526000000
C     2.007000000     0.008000000    -3.907000000
C     3.107000000     0.481000000    -3.221000000
H     3.675000000    -0.217000000    -2.611000000
C     1.337000000     0.852000000    -4.824000000
H     0.444000000     0.567000000    -5.373000000
O     0.474000000    -1.613000000    -4.508000000
H     0.983000000    -1.116000000    -2.548000000
C     1.266000000    -4.139000000    -2.078000000
C     0.307000000    -4.303000000    -3.263000000
H    -0.103000000    -5.315000000    -3.271000000
H     0.858000000    -4.253000000    -4.205000000
C    -0.829000000    -3.330000000    -3.301000000
C    -0.741000000    -2.123000000    -3.986000000
C    -1.790000000    -1.206000000    -3.950000000
H    -1.651000000    -0.220000000    -4.386000000
C    -2.968000000    -1.491000000    -3.306000000
O    -3.872000000    -0.457000000    -3.072000000
C    -3.934000000     0.310000000    -1.870000000
H    -2.938000000     0.266000000    -1.405000000
C    -4.091000000     1.795000000    -2.140000000
C    -4.532000000     2.662000000    -1.133000000
H    -4.891000000     2.274000000    -0.183000000
C    -3.732000000     2.291000000    -3.377000000
H    -3.363000000     1.751000000    -4.246000000
C    -3.831000000     3.680000000    -3.601000000
O    -3.265000000     4.325000000    -4.687000000
C    -4.349000000     4.486000000    -2.553000000
H    -4.338000000     5.566000000    -2.672000000
C    -4.742000000     3.981000000    -1.284000000
O    -5.303000000     4.802000000    -0.373000000
C    -5.434000000     4.547000000     0.960000000
C    -4.300000000     4.458000000     1.777000000
H    -3.289000000     4.535000000     1.385000000
C    -6.724000000     4.388000000     1.549000000
H    -7.582000000     4.438000000     0.883000000
C    -6.903000000     4.142000000     2.924000000
H    -7.920000000     4.174000000     3.308000000
C    -5.804000000     4.000000000     3.691000000
H    -5.840000000     3.810000000     4.760000000
C    -4.517000000     4.174000000     3.147000000
O    -3.506000000     4.168000000     4.059000000
C    -2.534000000     3.170000000     4.173000000
C    -1.265000000     3.542000000     4.487000000
H    -1.030000000     4.559000000     4.790000000
C    -0.278000000     2.567000000     4.572000000
O     1.045000000     2.909000000     4.807000000
C     2.011000000     2.182000000     5.442000000
C     3.335000000     2.013000000     4.943000000
H     3.704000000     2.556000000     4.077000000
C     1.691000000     1.526000000     6.612000000
H     0.692000000     1.717000000     6.995000000
C     2.608000000     0.636000000     7.192000000
H     2.208000000     0.043000000     8.010000000
C     3.843000000     0.439000000     6.724000000
H     4.447000000    -0.392000000     7.078000000
C     4.231000000     1.157000000     5.587000000
O     5.437000000     0.875000000     4.999000000
C     5.596000000     0.104000000     3.870000000
C     6.532000000     0.476000000     2.845000000
H     7.232000000     1.298000000     2.975000000
C     6.448000000    -0.161000000     1.620000000
O     7.381000000     0.058000000     0.645000000
C     7.083000000     0.364000000    -0.658000000
C     6.019000000     1.219000000    -1.036000000
H     5.454000000     1.774000000    -0.291000000
C     7.904000000    -0.119000000    -1.663000000
H     8.767000000    -0.759000000    -1.500000000
C     7.652000000     0.197000000    -2.984000000
H     8.300000000    -0.173000000    -3.775000000
C     6.551000000     0.971000000    -3.340000000
H     6.249000000     1.134000000    -4.371000000
C     5.771000000     1.493000000    -2.345000000
O     4.657000000     2.282000000    -2.722000000
C     3.611000000     1.748000000    -3.424000000
C     2.889000000     2.658000000    -4.210000000
H     3.239000000     3.684000000    -4.287000000
C     1.807000000     2.188000000    -4.892000000
O     1.163000000     3.011000000    -5.781000000
C    -0.155000000     3.082000000    -6.097000000
C    -0.689000000     2.426000000    -7.252000000
H    -0.004000000     1.778000000    -7.793000000
C    -2.010000000     2.373000000    -7.558000000
H    -2.364000000     1.952000000    -8.496000000
C    -2.875000000     3.052000000    -6.696000000
H    -3.943000000     3.118000000    -6.890000000
C    -2.379000000     3.769000000    -5.583000000
C    -1.025000000     3.773000000    -5.291000000
H    -0.659000000     4.284000000    -4.404000000
C     1.197000000     2.001000000    -0.986000000
H     1.007000000     2.665000000    -1.825000000
C     0.472000000     0.781000000    -0.842000000
H    -0.231000000     0.495000000    -1.620000000
C     0.653000000    -0.097000000     0.199000000
H     0.108000000    -1.043000000     0.334000000
C     1.475000000     0.335000000     1.246000000
H     1.494000000    -0.308000000     2.122000000
C     2.247000000     1.463000000     1.138000000
H     2.900000000     1.729000000     1.966000000
C     2.097000000     2.321000000     0.012000000
C     3.011000000     3.495000000    -0.145000000
O     3.929000000     3.684000000     0.626000000
O     2.769000000     4.403000000    -0.926000000
O     5.828000000     7.170000000     0.845000000
H     5.838000000     7.423000000     1.768000000
H     6.383000000     7.819000000     0.412000000
O     1.819000000     8.688000000    -1.244000000
H     2.287000000     8.548000000    -2.067000000
H     2.208000000     8.058000000    -0.637000000
O     1.523000000     6.925000000    -4.603000000
H     1.411000000     6.416000000    -3.801000000
H     1.320000000     6.310000000    -5.308000000
O     2.500000000     5.268000000     4.079000000
H     1.994000000     5.723000000     3.406000000
H     1.897000000     4.613000000     4.431000000
O    -1.800000000     6.968000000    -2.861000000
H    -1.910000000     6.503000000    -2.031000000
H    -0.996000000     6.606000000    -3.233000000
O     0.615000000     5.537000000    -2.349000000
H     1.462000000     5.099000000    -2.269000000
H     0.241000000     5.498000000    -1.468000000
O     5.444000000     5.241000000    -4.441000000
H     5.726000000     4.353000000    -4.661000000
H     5.248000000     5.206000000    -3.505000000
O    -1.651000000     6.284000000    -0.224000000
H    -2.013000000     7.157000000    -0.372000000
H    -1.486000000     6.250000000     0.718000000
O     4.804000000     9.767000000    -0.070000000
H     5.033000000     9.400000000    -0.923000000
H     5.039000000     9.083000000     0.557000000
O     8.906000000     3.489000000    -2.006000000
H     8.588000000     4.018000000    -2.737000000
H     8.118000000     3.086000000    -1.641000000
O     4.977000000     5.246000000    -1.947000000
H     5.517000000     4.916000000    -1.228000000
H     4.078000000     5.066000000    -1.672000000
O     8.700000000     3.659000000     2.383000000
H     7.861000000     3.703000000     1.923000000
H     9.323000000     4.071000000     1.784000000
O     3.008000000     6.816000000     0.384000000
H     3.958000000     6.772000000     0.270000000
H     2.677000000     6.039000000    -0.068000000
O     6.645000000     4.905000000     5.087000000
H     6.163000000     4.816000000     4.265000000
H     6.124000000     4.417000000     5.725000000
O     5.605000000     8.639000000    -2.177000000
H     5.482000000     7.711000000    -2.379000000
H     6.490000000     8.835000000    -2.483000000
O     6.387000000     4.384000000     0.414000000
H     5.549000000     3.964000000     0.608000000
H     6.272000000     5.291000000     0.698000000
O     4.247000000     9.015000000     2.565000000
H     3.553000000     8.566000000     2.082000000
H     4.039000000     8.856000000     3.486000000
O     0.426000000     6.226000000     2.484000000
H    -0.521000000     6.362000000     2.466000000
H     0.605000000     5.688000000     1.712000000
O     4.774000000     4.801000000     2.703000000
H     3.992000000     5.020000000     3.209000000
H     4.443000000     4.316000000     1.947000000
