215
-1467.65721
C    -1.996000000     0.431000000     5.242000000
H    -1.246000000    -0.226000000     5.674000000
C    -2.611000000     0.069000000     4.051000000
C    -3.493000000     0.970000000     3.486000000
H    -4.065000000     0.644000000     2.621000000
C    -2.445000000    -1.327000000     3.384000000
O    -1.820000000    -2.212000000     4.314000000
H    -1.712000000    -1.145000000     2.585000000
O    -3.611000000    -1.978000000     2.855000000
C    -3.513000000    -2.514000000     1.599000000
C    -3.996000000    -1.803000000     0.482000000
H    -4.491000000    -0.845000000     0.613000000
C    -4.076000000    -2.356000000    -0.773000000
O    -4.347000000    -1.465000000    -1.816000000
C    -3.329000000    -3.536000000    -1.034000000
C    -3.023000000    -4.041000000    -2.439000000
H    -2.934000000    -5.126000000    -2.527000000
C    -1.788000000    -3.500000000    -2.981000000
C    -0.552000000    -4.220000000    -2.946000000
H    -0.423000000    -5.161000000    -2.417000000
H    -3.813000000    -3.643000000    -3.080000000
C    -2.751000000    -4.224000000     0.049000000
H    -2.259000000    -5.165000000    -0.181000000
C    -2.875000000    -3.764000000     1.387000000
C    -2.283000000    -4.525000000     2.560000000
H    -2.252000000    -5.584000000     2.294000000
H    -2.901000000    -4.395000000     3.450000000
C    -0.886000000    -4.021000000     2.924000000
C     0.245000000    -4.593000000     2.362000000
H     0.156000000    -5.517000000     1.796000000
C    -0.763000000    -2.850000000     3.699000000
C     0.411000000    -2.200000000     3.793000000
H     0.493000000    -1.324000000     4.430000000
C     1.568000000    -2.732000000     3.164000000
O     2.744000000    -2.083000000     3.297000000
C     3.042000000    -1.233000000     2.216000000
C     3.487000000     0.153000000     2.668000000
C     4.229000000     0.897000000     1.791000000
H     4.555000000     0.464000000     0.849000000
C     3.131000000     0.630000000     3.930000000
H     2.730000000    -0.043000000     4.683000000
O     4.161000000    -1.856000000     1.535000000
H     2.148000000    -1.031000000     1.607000000
C     1.498000000    -3.939000000     2.490000000
C     2.712000000    -4.454000000     1.753000000
H     2.524000000    -5.504000000     1.521000000
H     3.607000000    -4.330000000     2.366000000
C     2.947000000    -3.708000000     0.408000000
C     2.389000000    -4.245000000    -0.772000000
H     1.808000000    -5.162000000    -0.734000000
C     3.778000000    -2.578000000     0.391000000
C     3.968000000    -1.938000000    -0.846000000
H     4.501000000    -0.991000000    -0.817000000
C     3.412000000    -2.391000000    -2.029000000
O     3.551000000    -1.551000000    -3.140000000
C     2.334000000    -0.831000000    -3.510000000
C     2.806000000     0.566000000    -4.041000000
C     3.729000000     1.343000000    -3.377000000
H     4.420000000     0.981000000    -2.620000000
C     1.896000000     1.249000000    -4.858000000
H     0.989000000     0.795000000    -5.250000000
O     1.606000000    -1.615000000    -4.484000000
H     1.654000000    -0.635000000    -2.668000000
C     2.646000000    -3.551000000    -2.008000000
C     1.967000000    -4.149000000    -3.207000000
H     1.964000000    -5.239000000    -3.144000000
H     2.593000000    -3.906000000    -4.069000000
C     0.651000000    -3.573000000    -3.404000000
C     0.516000000    -2.280000000    -3.996000000
C    -0.684000000    -1.711000000    -4.300000000
H    -0.804000000    -0.795000000    -4.872000000
C    -1.812000000    -2.329000000    -3.749000000
O    -2.942000000    -1.493000000    -3.685000000
C    -3.265000000    -0.789000000    -2.489000000
H    -2.396000000    -0.710000000    -1.819000000
C    -3.689000000     0.720000000    -2.696000000
C    -4.620000000     1.372000000    -1.893000000
H    -4.933000000     0.870000000    -0.981000000
C    -3.187000000     1.369000000    -3.852000000
H    -2.600000000     0.788000000    -4.559000000
C    -3.615000000     2.627000000    -4.209000000
O    -3.317000000     3.225000000    -5.425000000
C    -4.398000000     3.294000000    -3.310000000
H    -4.669000000     4.315000000    -3.564000000
C    -4.889000000     2.720000000    -2.144000000
O    -5.470000000     3.553000000    -1.171000000
C    -5.825000000     3.128000000     0.043000000
C    -4.987000000     3.443000000     1.173000000
H    -4.117000000     4.060000000     0.964000000
C    -7.122000000     2.642000000     0.291000000
H    -7.803000000     2.581000000    -0.554000000
C    -7.486000000     2.248000000     1.634000000
H    -8.397000000     1.723000000     1.911000000
C    -6.577000000     2.491000000     2.687000000
H    -6.807000000     2.248000000     3.721000000
C    -5.300000000     3.064000000     2.443000000
O    -4.432000000     3.225000000     3.526000000
C    -3.639000000     2.270000000     4.047000000
C    -3.050000000     2.609000000     5.250000000
H    -3.101000000     3.649000000     5.562000000
C    -2.161000000     1.701000000     5.830000000
O    -1.457000000     1.988000000     6.990000000
C    -0.060000000     1.687000000     7.123000000
C     0.868000000     2.018000000     6.106000000
H     0.618000000     2.423000000     5.129000000
C     0.476000000     1.368000000     8.399000000
H    -0.256000000     1.205000000     9.186000000
C     1.763000000     1.189000000     8.727000000
H     1.976000000     0.943000000     9.764000000
C     2.756000000     1.496000000     7.719000000
H     3.819000000     1.537000000     7.939000000
C     2.265000000     1.898000000     6.436000000
O     3.182000000     2.371000000     5.590000000
C     3.439000000     1.890000000     4.340000000
C     4.232000000     2.603000000     3.471000000
H     4.577000000     3.584000000     3.786000000
C     4.658000000     2.155000000     2.231000000
O     5.415000000     3.024000000     1.519000000
C     5.926000000     2.752000000     0.305000000
C     5.215000000     3.080000000    -0.847000000
H     4.221000000     3.520000000    -0.805000000
C     7.236000000     2.251000000     0.186000000
H     7.788000000     2.056000000     1.101000000
C     7.830000000     2.010000000    -1.024000000
H     8.824000000     1.572000000    -1.053000000
C     7.153000000     2.371000000    -2.177000000
H     7.640000000     2.193000000    -3.133000000
C     5.887000000     2.997000000    -2.110000000
O     5.147000000     3.362000000    -3.306000000
C     4.144000000     2.573000000    -3.891000000
C     3.440000000     3.131000000    -4.911000000
H     3.665000000     4.143000000    -5.239000000
C     2.211000000     2.561000000    -5.358000000
O     1.357000000     3.329000000    -6.096000000
C     0.121000000     2.883000000    -6.451000000
C     0.019000000     2.155000000    -7.673000000
H     0.936000000     1.994000000    -8.235000000
C    -1.273000000     1.789000000    -8.074000000
H    -1.387000000     1.379000000    -9.075000000
C    -2.365000000     2.033000000    -7.221000000
H    -3.283000000     1.564000000    -7.567000000
C    -2.205000000     2.936000000    -6.143000000
C    -0.941000000     3.388000000    -5.711000000
H    -0.782000000     4.064000000    -4.875000000
C     0.385000000     2.610000000    -1.445000000
H     0.258000000     2.891000000    -2.487000000
C    -0.064000000     1.357000000    -1.165000000
H    -0.509000000     0.702000000    -1.910000000
C     0.038000000     0.845000000     0.111000000
H    -0.415000000    -0.118000000     0.319000000
C     0.566000000     1.632000000     1.102000000
H     0.551000000     1.360000000     2.154000000
C     1.018000000     2.928000000     0.796000000
H     1.424000000     3.505000000     1.623000000
C     0.897000000     3.480000000    -0.510000000
C     1.431000000     4.897000000    -0.673000000
O     1.915000000     5.466000000     0.255000000
O     1.367000000     5.391000000    -1.813000000
O     1.109000000     6.089000000     2.619000000
H     0.166000000     5.978000000     2.738000000
H     1.283000000     5.741000000     1.745000000
O     5.883000000     5.818000000    -3.453000000
H     6.362000000     6.096000000    -2.672000000
H     5.901000000     4.862000000    -3.417000000
O     3.186000000     6.818000000    -3.115000000
H     3.999000000     6.312000000    -3.117000000
H     2.616000000     6.352000000    -2.503000000
O    -3.891000000     6.499000000     0.680000000
H    -4.472000000     6.869000000     0.015000000
H    -3.477000000     7.260000000     1.088000000
O    -1.711000000     9.028000000    -1.774000000
H    -1.248000000     8.236000000    -2.049000000
H    -2.548000000     8.711000000    -1.436000000
O    -3.161000000     6.195000000    -2.403000000
H    -3.027000000     5.672000000    -1.612000000
H    -2.319000000     6.162000000    -2.857000000
O     3.256000000     9.636000000    -3.332000000
H     2.313000000     9.780000000    -3.404000000
H     3.354000000     8.684000000    -3.341000000
O     1.124000000     7.978000000    -0.480000000
H     0.650000000     7.796000000    -1.291000000
H     1.489000000     7.132000000    -0.220000000
O     4.117000000     6.092000000     1.390000000
H     4.542000000     5.249000000     1.230000000
H     3.227000000     5.978000000     1.058000000
O     6.375000000     6.611000000    -0.151000000
H     6.550000000     7.552000000    -0.171000000
H     5.475000000     6.543000000     0.168000000
O     3.349000000     9.531000000    -0.418000000
H     2.628000000     8.937000000    -0.210000000
H     3.583000000     9.317000000    -1.321000000
O     1.314000000     6.878000000    -4.925000000
H     2.059000000     6.964000000    -4.331000000
H     1.633000000     6.317000000    -5.632000000
O    -0.526000000     6.966000000    -2.926000000
H     0.040000000     6.436000000    -2.364000000
H    -0.172000000     6.843000000    -3.807000000
O    -0.304000000     8.635000000     1.715000000
H    -0.066000000     8.635000000     0.788000000
H    -0.359000000     7.709000000     1.949000000
O     5.038000000     8.161000000     3.203000000
H     4.188000000     8.447000000     3.537000000
H     4.827000000     7.611000000     2.449000000
O     0.560000000     9.840000000    -3.959000000
H    -0.002000000     9.414000000    -4.606000000
H    -0.047000000    10.188000000    -3.306000000
O    -1.605000000     6.012000000     2.251000000
H    -1.994000000     6.126000000     3.118000000
H    -2.339000000     5.761000000     1.690000000
O     1.358000000     5.343000000     5.482000000
H     1.364000000     6.121000000     6.040000000
H     1.590000000     5.671000000     4.613000000
O     2.389000000     8.417000000     3.024000000
H     1.961000000     7.580000000     2.846000000
H     1.818000000     9.070000000     2.619000000
