215
-1431.59462
C    -2.208000000     2.074000000     4.371000000
H    -1.415000000     1.704000000     5.016000000
C    -2.792000000     1.192000000     3.446000000
C    -3.694000000     1.659000000     2.503000000
H    -4.001000000     0.997000000     1.697000000
C    -2.380000000    -0.260000000     3.385000000
O    -1.544000000    -0.626000000     4.486000000
H    -1.800000000    -0.235000000     2.451000000
O    -3.531000000    -1.126000000     3.246000000
C    -3.441000000    -2.154000000     2.289000000
C    -3.953000000    -1.972000000     0.986000000
H    -4.686000000    -1.212000000     0.729000000
C    -3.705000000    -2.898000000     0.019000000
O    -4.234000000    -2.604000000    -1.251000000
C    -3.024000000    -4.056000000     0.262000000
C    -2.582000000    -5.039000000    -0.869000000
H    -2.177000000    -5.940000000    -0.402000000
C    -1.381000000    -4.421000000    -1.659000000
C    -0.038000000    -4.804000000    -1.357000000
H     0.193000000    -5.509000000    -0.562000000
H    -3.406000000    -5.365000000    -1.507000000
C    -2.587000000    -4.290000000     1.578000000
H    -2.063000000    -5.212000000     1.814000000
C    -2.667000000    -3.247000000     2.526000000
C    -1.954000000    -3.468000000     3.903000000
H    -1.793000000    -4.526000000     4.118000000
H    -2.495000000    -3.040000000     4.749000000
C    -0.538000000    -2.815000000     3.836000000
C     0.595000000    -3.527000000     3.588000000
H     0.541000000    -4.489000000     3.084000000
C    -0.463000000    -1.428000000     4.238000000
C     0.821000000    -0.834000000     4.423000000
H     0.912000000     0.223000000     4.661000000
C     1.937000000    -1.576000000     4.014000000
O     3.115000000    -0.796000000     3.973000000
C     3.529000000    -0.290000000     2.692000000
C     3.807000000     1.191000000     2.800000000
C     4.881000000     1.647000000     2.029000000
H     5.410000000     0.974000000     1.359000000
C     3.097000000     2.200000000     3.401000000
H     2.128000000     1.920000000     3.806000000
O     4.568000000    -1.200000000     2.200000000
H     2.620000000    -0.305000000     2.072000000
C     1.836000000    -2.859000000     3.544000000
C     3.013000000    -3.605000000     3.044000000
H     2.725000000    -4.645000000     3.212000000
H     3.906000000    -3.308000000     3.598000000
C     3.343000000    -3.255000000     1.649000000
C     2.899000000    -4.145000000     0.606000000
H     2.356000000    -5.022000000     0.949000000
C     4.001000000    -2.101000000     1.267000000
C     4.214000000    -1.873000000    -0.011000000
H     4.807000000    -0.992000000    -0.247000000
C     3.734000000    -2.714000000    -0.992000000
O     3.839000000    -2.224000000    -2.290000000
C     2.602000000    -1.648000000    -2.767000000
C     2.760000000    -0.367000000    -3.546000000
C     3.888000000     0.451000000    -3.240000000
H     4.605000000     0.188000000    -2.466000000
C     1.757000000     0.183000000    -4.355000000
H     0.865000000    -0.380000000    -4.617000000
O     1.900000000    -2.617000000    -3.605000000
H     1.975000000    -1.391000000    -1.901000000
C     3.082000000    -3.859000000    -0.725000000
C     2.431000000    -4.749000000    -1.761000000
H     2.284000000    -5.707000000    -1.260000000
H     3.082000000    -5.003000000    -2.600000000
C     1.069000000    -4.237000000    -2.037000000
C     0.829000000    -3.254000000    -3.010000000
C    -0.454000000    -2.819000000    -3.379000000
H    -0.625000000    -2.080000000    -4.157000000
C    -1.552000000    -3.468000000    -2.726000000
O    -2.801000000    -2.911000000    -2.996000000
C    -3.327000000    -1.963000000    -2.120000000
H    -2.613000000    -1.444000000    -1.464000000
C    -3.980000000    -0.840000000    -2.977000000
C    -5.124000000    -0.236000000    -2.535000000
H    -5.558000000    -0.470000000    -1.566000000
C    -3.459000000    -0.452000000    -4.230000000
H    -2.642000000    -1.057000000    -4.617000000
C    -4.045000000     0.607000000    -4.877000000
O    -3.660000000     0.858000000    -6.182000000
C    -5.145000000     1.259000000    -4.404000000
H    -5.637000000     2.068000000    -4.937000000
C    -5.629000000     0.874000000    -3.129000000
O    -6.755000000     1.496000000    -2.614000000
C    -6.840000000     1.989000000    -1.226000000
C    -5.766000000     2.528000000    -0.519000000
H    -4.867000000     2.935000000    -0.974000000
C    -8.044000000     1.825000000    -0.641000000
H    -8.761000000     1.251000000    -1.222000000
C    -8.241000000     2.186000000     0.702000000
H    -9.208000000     1.941000000     1.135000000
C    -7.160000000     2.638000000     1.385000000
H    -7.368000000     2.909000000     2.417000000
C    -5.941000000     2.807000000     0.807000000
O    -4.915000000     3.546000000     1.475000000
C    -4.059000000     3.044000000     2.481000000
C    -3.515000000     3.920000000     3.399000000
H    -3.823000000     4.962000000     3.419000000
C    -2.556000000     3.445000000     4.373000000
O    -2.030000000     4.331000000     5.362000000
C    -0.593000000     4.279000000     5.640000000
C     0.256000000     4.282000000     4.548000000
H    -0.110000000     4.252000000     3.525000000
C    -0.091000000     4.338000000     6.926000000
H    -0.829000000     4.255000000     7.720000000
C     1.208000000     4.343000000     7.208000000
H     1.629000000     4.339000000     8.211000000
C     2.108000000     4.400000000     6.162000000
H     3.162000000     4.540000000     6.388000000
C     1.624000000     4.373000000     4.847000000
O     2.593000000     4.524000000     3.838000000
C     3.360000000     3.527000000     3.290000000
C     4.476000000     3.979000000     2.546000000
H     4.745000000     5.032000000     2.583000000
C     5.213000000     2.989000000     1.903000000
O     6.324000000     3.334000000     1.160000000
C     6.606000000     2.813000000    -0.073000000
C     5.618000000     2.902000000    -1.072000000
H     4.705000000     3.476000000    -0.931000000
C     7.861000000     2.151000000    -0.305000000
H     8.655000000     1.996000000     0.422000000
C     8.040000000     1.568000000    -1.576000000
H     8.951000000     1.080000000    -1.914000000
C     7.121000000     1.788000000    -2.607000000
H     7.392000000     1.510000000    -3.622000000
C     5.937000000     2.384000000    -2.331000000
O     5.053000000     2.628000000    -3.406000000
C     4.023000000     1.755000000    -3.747000000
C     3.057000000     2.220000000    -4.574000000
H     3.106000000     3.226000000    -4.983000000
C     1.930000000     1.463000000    -4.931000000
O     0.948000000     2.061000000    -5.687000000
C     0.040000000     1.337000000    -6.429000000
C     0.339000000     0.589000000    -7.620000000
H     1.337000000     0.479000000    -8.039000000
C    -0.721000000    -0.158000000    -8.244000000
H    -0.447000000    -0.818000000    -9.063000000
C    -2.014000000     0.032000000    -7.778000000
H    -2.812000000    -0.528000000    -8.260000000
C    -2.361000000     0.852000000    -6.694000000
C    -1.276000000     1.430000000    -5.983000000
H    -1.482000000     1.983000000    -5.071000000
C     1.026000000     1.957000000    -1.281000000
H     1.856000000     2.539000000    -1.674000000
C     1.199000000     0.695000000    -0.605000000
H     2.169000000     0.223000000    -0.478000000
C     0.128000000     0.059000000    -0.065000000
H     0.319000000    -0.920000000     0.372000000
C    -1.167000000     0.668000000    -0.120000000
H    -2.045000000     0.124000000     0.217000000
C    -1.352000000     1.870000000    -0.767000000
H    -2.379000000     2.194000000    -0.911000000
C    -0.243000000     2.596000000    -1.301000000
C    -0.436000000     3.865000000    -2.138000000
O    -1.570000000     4.355000000    -2.133000000
O     0.503000000     4.537000000    -2.552000000
O    -4.293000000     6.661000000    -3.068000000
H    -4.671000000     7.382000000    -3.572000000
H    -5.034000000     6.085000000    -2.880000000
O     1.772000000     6.077000000    -7.896000000
H     0.981000000     5.557000000    -7.754000000
H     2.381000000     5.475000000    -8.324000000
O    -3.450000000     5.475000000    -0.292000000
H    -2.933000000     5.199000000    -1.049000000
H    -3.049000000     5.021000000     0.450000000
O     0.842000000     7.694000000    -3.746000000
H     0.100000000     7.259000000    -3.325000000
H     1.377000000     8.012000000    -3.019000000
O    -1.064000000     8.519000000    -0.334000000
H    -0.797000000     8.430000000     0.581000000
H    -1.082000000     7.622000000    -0.667000000
O     0.323000000    10.325000000    -4.430000000
H     0.436000000     9.417000000    -4.146000000
H     0.655000000    10.847000000    -3.700000000
O    -0.769000000     5.009000000    -7.799000000
H    -1.630000000     4.608000000    -7.686000000
H    -0.176000000     4.451000000    -7.296000000
O    -4.354000000     8.092000000    -0.241000000
H    -3.845000000     7.320000000    -0.489000000
H    -5.232000000     7.919000000    -0.580000000
O     0.819000000     6.355000000    -0.407000000
H     0.461000000     5.913000000     0.362000000
H     0.685000000     5.735000000    -1.124000000
O    -3.026000000     4.122000000    -4.375000000
H    -3.712000000     4.784000000    -4.287000000
H    -2.425000000     4.303000000    -3.652000000
O    -3.557000000     4.588000000    -7.239000000
H    -3.268000000     4.461000000    -6.335000000
H    -4.327000000     4.026000000    -7.326000000
O     0.880000000     4.989000000    -5.243000000
H     0.869000000     4.290000000    -4.590000000
H     0.265000000     5.641000000    -4.907000000
O     2.801000000     7.486000000    -5.631000000
H     2.124000000     7.618000000    -4.967000000
H     2.349000000     7.044000000    -6.349000000
O     3.289000000     4.990000000    -2.547000000
H     3.444000000     4.178000000    -3.030000000
H     2.337000000     5.042000000    -2.465000000
O    -3.370000000     7.547000000    -5.704000000
H    -3.793000000     7.721000000    -6.545000000
H    -4.040000000     7.099000000    -5.187000000
O     1.513000000     8.993000000    -1.053000000
H     1.772000000     8.093000000    -0.855000000
H     0.569000000     9.010000000    -0.894000000
O    -1.562000000     6.865000000    -2.652000000
H    -2.420000000     7.130000000    -2.981000000
H    -1.585000000     5.908000000    -2.665000000
O    -0.792000000     7.627000000    -6.915000000
H    -0.356000000     6.777000000    -6.974000000
H    -1.564000000     7.464000000    -6.373000000
O    -2.711000000    10.147000000    -1.593000000
H    -3.567000000     9.751000000    -1.431000000
H    -2.083000000     9.506000000    -1.259000000
