215
-1461.45477
C    -1.407000000     1.456000000     3.885000000
H    -0.378000000     1.171000000     4.087000000
C    -2.307000000     0.461000000     3.644000000
C    -3.638000000     0.752000000     3.394000000
H    -4.388000000    -0.019000000     3.238000000
C    -1.877000000    -1.030000000     3.574000000
O    -0.872000000    -1.460000000     4.556000000
H    -1.445000000    -1.170000000     2.572000000
O    -3.011000000    -1.949000000     3.597000000
C    -3.042000000    -2.794000000     2.481000000
C    -3.739000000    -2.376000000     1.342000000
H    -4.369000000    -1.494000000     1.417000000
C    -3.419000000    -2.938000000     0.134000000
O    -4.073000000    -2.378000000    -0.924000000
C    -2.627000000    -4.095000000    -0.009000000
C    -2.374000000    -4.662000000    -1.315000000
H    -2.111000000    -5.720000000    -1.257000000
C    -1.304000000    -4.018000000    -2.207000000
C    -0.006000000    -4.503000000    -2.195000000
H     0.095000000    -5.358000000    -1.531000000
H    -3.334000000    -4.596000000    -1.831000000
C    -1.854000000    -4.493000000     1.072000000
H    -1.078000000    -5.238000000     0.914000000
C    -2.054000000    -3.817000000     2.327000000
C    -1.100000000    -4.201000000     3.449000000
H    -0.843000000    -5.256000000     3.334000000
H    -1.574000000    -4.219000000     4.433000000
C     0.186000000    -3.414000000     3.409000000
C     1.324000000    -3.985000000     2.840000000
H     1.289000000    -4.948000000     2.337000000
C     0.231000000    -2.087000000     3.945000000
C     1.411000000    -1.493000000     3.964000000
H     1.517000000    -0.458000000     4.279000000
C     2.559000000    -2.082000000     3.542000000
O     3.656000000    -1.182000000     3.534000000
C     3.879000000    -0.524000000     2.238000000
C     4.319000000     0.921000000     2.474000000
C     4.921000000     1.613000000     1.438000000
H     5.165000000     1.063000000     0.533000000
C     4.075000000     1.645000000     3.690000000
H     3.758000000     1.109000000     4.581000000
O     4.791000000    -1.209000000     1.368000000
H     2.863000000    -0.528000000     1.815000000
C     2.532000000    -3.337000000     2.947000000
C     3.693000000    -3.860000000     2.116000000
H     3.736000000    -4.942000000     1.973000000
H     4.620000000    -3.595000000     2.629000000
C     3.696000000    -3.228000000     0.698000000
C     3.047000000    -3.969000000    -0.338000000
H     2.516000000    -4.884000000    -0.090000000
C     4.333000000    -2.059000000     0.393000000
C     4.345000000    -1.643000000    -0.920000000
H     4.797000000    -0.682000000    -1.152000000
C     3.763000000    -2.374000000    -1.941000000
O     3.632000000    -1.731000000    -3.191000000
C     2.367000000    -1.088000000    -3.428000000
C     2.387000000     0.291000000    -4.021000000
C     3.558000000     1.021000000    -3.949000000
H     4.421000000     0.528000000    -3.509000000
C     1.236000000     0.880000000    -4.450000000
H     0.241000000     0.450000000    -4.375000000
O     1.655000000    -2.046000000    -4.269000000
H     1.875000000    -0.994000000    -2.449000000
C     3.125000000    -3.571000000    -1.647000000
C     2.433000000    -4.340000000    -2.753000000
H     2.389000000    -5.392000000    -2.463000000
H     3.017000000    -4.240000000    -3.671000000
C     0.975000000    -3.858000000    -2.888000000
C     0.647000000    -2.716000000    -3.638000000
C    -0.686000000    -2.300000000    -3.737000000
H    -0.929000000    -1.432000000    -4.344000000
C    -1.625000000    -2.892000000    -3.003000000
O    -2.881000000    -2.286000000    -2.971000000
C    -3.303000000    -1.543000000    -1.837000000
H    -2.435000000    -1.042000000    -1.385000000
C    -4.250000000    -0.401000000    -2.256000000
C    -5.298000000     0.152000000    -1.435000000
H    -5.584000000    -0.338000000    -0.508000000
C    -3.991000000     0.214000000    -3.512000000
H    -3.204000000    -0.079000000    -4.202000000
C    -4.746000000     1.368000000    -3.902000000
O    -4.429000000     1.975000000    -5.090000000
C    -5.772000000     1.878000000    -3.035000000
H    -6.277000000     2.813000000    -3.263000000
C    -6.020000000     1.252000000    -1.838000000
O    -7.052000000     1.729000000    -1.046000000
C    -7.142000000     1.582000000     0.341000000
C    -6.108000000     1.913000000     1.176000000
H    -5.175000000     2.288000000     0.763000000
C    -8.363000000     1.192000000     0.850000000
H    -9.244000000     0.919000000     0.275000000
C    -8.582000000     1.060000000     2.237000000
H    -9.543000000     0.757000000     2.644000000
C    -7.568000000     1.465000000     3.068000000
H    -7.672000000     1.347000000     4.144000000
C    -6.313000000     1.844000000     2.547000000
O    -5.425000000     2.431000000     3.418000000
C    -4.124000000     2.068000000     3.400000000
C    -3.181000000     3.094000000     3.622000000
H    -3.532000000     4.113000000     3.760000000
C    -1.843000000     2.783000000     3.773000000
O    -0.900000000     3.763000000     4.121000000
C     0.167000000     3.636000000     4.946000000
C     1.488000000     3.469000000     4.509000000
H     1.619000000     3.245000000     3.453000000
C    -0.030000000     4.066000000     6.253000000
H    -1.051000000     4.337000000     6.510000000
C     0.969000000     3.983000000     7.168000000
H     0.787000000     4.395000000     8.157000000
C     2.249000000     3.769000000     6.733000000
H     3.093000000     3.873000000     7.410000000
C     2.564000000     3.521000000     5.405000000
O     3.916000000     3.591000000     5.004000000
C     4.328000000     3.020000000     3.834000000
C     4.885000000     3.675000000     2.753000000
H     5.031000000     4.749000000     2.842000000
C     5.136000000     2.958000000     1.609000000
O     5.634000000     3.719000000     0.579000000
C     5.989000000     3.279000000    -0.656000000
C     5.087000000     3.392000000    -1.713000000
H     4.104000000     3.840000000    -1.590000000
C     7.199000000     2.602000000    -0.800000000
H     7.846000000     2.497000000     0.067000000
C     7.517000000     1.947000000    -2.068000000
H     8.426000000     1.356000000    -2.140000000
C     6.673000000     2.219000000    -3.159000000
H     6.939000000     1.832000000    -4.140000000
C     5.444000000     2.951000000    -2.969000000
O     4.653000000     3.184000000    -4.037000000
C     3.588000000     2.328000000    -4.284000000
C     2.485000000     2.879000000    -4.924000000
H     2.645000000     3.921000000    -5.191000000
C     1.288000000     2.187000000    -4.978000000
O     0.209000000     2.925000000    -5.297000000
C    -0.925000000     2.329000000    -5.788000000
C    -0.866000000     1.685000000    -7.043000000
H     0.111000000     1.626000000    -7.515000000
C    -1.957000000     0.989000000    -7.537000000
H    -1.756000000     0.338000000    -8.384000000
C    -3.208000000     1.029000000    -6.943000000
H    -4.119000000     0.555000000    -7.299000000
C    -3.317000000     1.874000000    -5.797000000
C    -2.161000000     2.443000000    -5.237000000
H    -2.266000000     3.027000000    -4.326000000
C     1.606000000     2.149000000    -0.035000000
H     2.524000000     2.672000000    -0.294000000
C     1.596000000     0.764000000    -0.165000000
H     2.484000000     0.231000000    -0.497000000
C     0.429000000     0.078000000     0.155000000
H     0.312000000    -0.938000000     0.139000000
C    -0.783000000     0.752000000     0.435000000
H    -1.717000000     0.239000000     0.650000000
C    -0.758000000     2.135000000     0.545000000
H    -1.696000000     2.641000000     0.756000000
C     0.467000000     2.806000000     0.369000000
C     0.456000000     4.301000000     0.609000000
O    -0.643000000     4.874000000     0.710000000
O     1.479000000     4.977000000     0.726000000
O    -4.951000000     6.442000000     3.095000000
H    -4.330000000     5.996000000     2.520000000
H    -4.870000000     7.368000000     2.865000000
O    -4.442000000     5.182000000    -2.292000000
H    -4.658000000     5.019000000    -3.210000000
H    -3.665000000     4.648000000    -2.130000000
O     4.226000000     6.226000000    -3.599000000
H     3.295000000     6.208000000    -3.376000000
H     4.363000000     5.430000000    -4.114000000
O     0.992000000     8.919000000     0.328000000
H     0.410000000     8.481000000    -0.293000000
H     1.823000000     8.451000000     0.249000000
O     2.660000000     6.522000000     2.655000000
H     2.296000000     5.757000000     2.209000000
H     3.196000000     6.955000000     1.990000000
O     3.344000000     6.945000000     5.202000000
H     3.159000000     6.748000000     4.284000000
H     3.768000000     6.154000000     5.537000000
O    -1.799000000     7.143000000     5.625000000
H    -2.584000000     6.597000000     5.660000000
H    -1.353000000     6.871000000     4.823000000
O    -0.556000000     6.975000000    -0.811000000
H    -1.466000000     7.118000000    -1.071000000
H    -0.598000000     6.266000000    -0.171000000
O    -2.879000000     9.487000000    -0.165000000
H    -3.464000000     9.210000000    -0.870000000
H    -2.478000000    10.294000000    -0.489000000
O    -0.556000000     6.356000000     3.166000000
H    -0.419000000     5.483000000     2.797000000
H     0.297000000     6.783000000     3.096000000
O     0.374000000     9.754000000    -2.613000000
H     1.156000000    10.258000000    -2.387000000
H    -0.355000000    10.340000000    -2.413000000
O     3.046000000     6.825000000    -0.125000000
H     2.857000000     7.014000000    -1.044000000
H     2.384000000     6.181000000     0.129000000
O     1.677000000     7.158000000    -2.540000000
H     0.963000000     6.983000000    -1.927000000
H     1.493000000     8.035000000    -2.877000000
O    -1.639000000     6.115000000    -5.049000000
H    -1.582000000     6.385000000    -4.133000000
H    -2.577000000     6.035000000    -5.218000000
O    -0.135000000     9.264000000     2.832000000
H    -0.642000000     8.492000000     3.082000000
H     0.162000000     9.077000000     1.942000000
O    -2.135000000     4.013000000    -1.398000000
H    -1.735000000     4.594000000    -0.751000000
H    -1.504000000     3.301000000    -1.503000000
O    -5.516000000     5.012000000     0.234000000
H    -4.672000000     5.271000000     0.604000000
H    -5.356000000     4.946000000    -0.707000000
O    -2.776000000     5.999000000     1.415000000
H    -2.456000000     6.889000000     1.564000000
H    -1.989000000     5.492000000     1.216000000
O    -4.123000000     8.210000000    -2.310000000
H    -4.994000000     8.543000000    -2.092000000
H    -4.229000000     7.259000000    -2.332000000
