215
-1460.80471
C    -2.016000000     2.264000000     4.336000000
H    -1.436000000     1.724000000     5.081000000
C    -2.642000000     1.582000000     3.353000000
C    -3.358000000     2.219000000     2.328000000
H    -3.958000000     1.597000000     1.669000000
C    -2.432000000     0.103000000     3.323000000
O    -1.818000000    -0.413000000     4.490000000
H    -1.845000000    -0.114000000     2.419000000
O    -3.657000000    -0.658000000     3.156000000
C    -3.610000000    -1.639000000     2.167000000
C    -4.117000000    -1.390000000     0.896000000
H    -4.588000000    -0.417000000     0.783000000
C    -4.149000000    -2.299000000    -0.123000000
O    -4.530000000    -2.006000000    -1.415000000
C    -3.550000000    -3.581000000     0.133000000
C    -3.362000000    -4.500000000    -1.061000000
H    -3.243000000    -5.532000000    -0.723000000
C    -2.034000000    -4.138000000    -1.721000000
C    -0.853000000    -4.676000000    -1.266000000
H    -0.934000000    -5.398000000    -0.457000000
H    -4.223000000    -4.396000000    -1.723000000
C    -2.920000000    -3.865000000     1.377000000
H    -2.473000000    -4.839000000     1.559000000
C    -3.037000000    -2.904000000     2.406000000
C    -2.395000000    -3.214000000     3.826000000
H    -2.230000000    -4.289000000     3.914000000
H    -3.067000000    -2.831000000     4.596000000
C    -0.994000000    -2.624000000     3.979000000
C     0.115000000    -3.459000000     3.652000000
H    -0.041000000    -4.459000000     3.254000000
C    -0.793000000    -1.298000000     4.427000000
C     0.461000000    -0.715000000     4.369000000
H     0.571000000     0.316000000     4.694000000
C     1.527000000    -1.478000000     4.055000000
O     2.716000000    -0.854000000     3.940000000
C     3.206000000    -0.501000000     2.608000000
C     3.682000000     0.931000000     2.582000000
C     4.629000000     1.323000000     1.638000000
H     5.077000000     0.569000000     0.995000000
C     3.132000000     1.942000000     3.401000000
H     2.331000000     1.765000000     4.114000000
O     4.198000000    -1.437000000     2.186000000
H     2.306000000    -0.498000000     1.976000000
C     1.386000000    -2.846000000     3.719000000
C     2.594000000    -3.626000000     3.223000000
H     2.534000000    -4.707000000     3.367000000
H     3.490000000    -3.315000000     3.763000000
C     2.807000000    -3.412000000     1.767000000
C     2.322000000    -4.331000000     0.879000000
H     1.655000000    -5.091000000     1.279000000
C     3.738000000    -2.404000000     1.301000000
C     4.068000000    -2.350000000    -0.070000000
H     4.731000000    -1.565000000    -0.427000000
C     3.390000000    -3.188000000    -0.958000000
O     3.436000000    -3.037000000    -2.331000000
C     2.315000000    -2.372000000    -2.913000000
C     2.908000000    -1.228000000    -3.768000000
C     3.910000000    -0.321000000    -3.290000000
H     4.423000000    -0.596000000    -2.372000000
C     2.336000000    -0.954000000    -5.041000000
H     1.725000000    -1.702000000    -5.539000000
O     1.527000000    -3.330000000    -3.664000000
H     1.780000000    -1.900000000    -2.076000000
C     2.449000000    -4.147000000    -0.486000000
C     1.641000000    -5.003000000    -1.401000000
H     1.239000000    -5.896000000    -0.918000000
H     2.345000000    -5.432000000    -2.117000000
C     0.353000000    -4.399000000    -1.849000000
C     0.354000000    -3.699000000    -3.079000000
C    -0.801000000    -3.040000000    -3.527000000
H    -0.773000000    -2.434000000    -4.429000000
C    -1.968000000    -3.205000000    -2.781000000
O    -3.063000000    -2.519000000    -3.091000000
C    -3.509000000    -1.472000000    -2.216000000
H    -2.626000000    -1.330000000    -1.576000000
C    -3.749000000    -0.065000000    -2.841000000
C    -4.850000000     0.687000000    -2.453000000
H    -5.540000000     0.222000000    -1.754000000
C    -2.932000000     0.388000000    -3.865000000
H    -2.187000000    -0.322000000    -4.213000000
C    -3.094000000     1.663000000    -4.499000000
O    -2.230000000     2.210000000    -5.453000000
C    -4.173000000     2.353000000    -4.089000000
H    -4.423000000     3.379000000    -4.346000000
C    -5.010000000     1.936000000    -3.037000000
O    -5.918000000     2.851000000    -2.698000000
C    -6.126000000     2.951000000    -1.341000000
C    -5.146000000     3.415000000    -0.515000000
H    -4.200000000     3.719000000    -0.955000000
C    -7.381000000     2.559000000    -0.827000000
H    -8.119000000     2.121000000    -1.494000000
C    -7.632000000     2.686000000     0.548000000
H    -8.624000000     2.419000000     0.905000000
C    -6.648000000     3.245000000     1.383000000
H    -6.899000000     3.476000000     2.415000000
C    -5.456000000     3.678000000     0.796000000
O    -4.498000000     4.338000000     1.597000000
C    -3.652000000     3.586000000     2.443000000
C    -3.028000000     4.302000000     3.458000000
H    -3.053000000     5.389000000     3.471000000
C    -2.172000000     3.660000000     4.394000000
O    -1.503000000     4.361000000     5.351000000
C    -0.156000000     4.235000000     5.721000000
C     0.872000000     4.234000000     4.800000000
H     0.635000000     4.061000000     3.754000000
C     0.108000000     4.328000000     7.089000000
H    -0.633000000     4.450000000     7.875000000
C     1.421000000     4.332000000     7.529000000
H     1.620000000     4.432000000     8.593000000
C     2.459000000     4.311000000     6.614000000
H     3.484000000     4.350000000     6.973000000
C     2.196000000     4.265000000     5.232000000
O     3.257000000     4.189000000     4.418000000
C     3.647000000     3.227000000     3.451000000
C     4.602000000     3.593000000     2.483000000
H     4.843000000     4.646000000     2.362000000
C     5.103000000     2.629000000     1.599000000
O     6.111000000     3.104000000     0.776000000
C     6.441000000     2.411000000    -0.343000000
C     5.653000000     2.338000000    -1.470000000
H     4.934000000     3.150000000    -1.548000000
C     7.563000000     1.551000000    -0.223000000
H     8.205000000     1.497000000     0.653000000
C     7.688000000     0.522000000    -1.100000000
H     8.412000000    -0.247000000    -0.843000000
C     6.943000000     0.582000000    -2.277000000
H     7.109000000    -0.119000000    -3.091000000
C     5.950000000     1.505000000    -2.491000000
O     5.211000000     1.708000000    -3.612000000
C     4.307000000     0.782000000    -4.042000000
C     3.643000000     1.137000000    -5.219000000
H     3.657000000     2.110000000    -5.702000000
C     2.631000000     0.249000000    -5.681000000
O     2.031000000     0.585000000    -6.868000000
C     0.646000000     0.544000000    -7.032000000
C     0.040000000    -0.345000000    -7.883000000
H     0.689000000    -0.989000000    -8.471000000
C    -1.316000000    -0.407000000    -7.893000000
H    -1.737000000    -1.159000000    -8.556000000
C    -2.103000000     0.456000000    -7.125000000
H    -3.183000000     0.336000000    -7.082000000
C    -1.489000000     1.424000000    -6.334000000
C    -0.094000000     1.480000000    -6.308000000
H     0.445000000     2.241000000    -5.748000000
C     1.236000000     1.847000000    -1.857000000
H     2.215000000     2.138000000    -2.227000000
C     1.071000000     0.704000000    -1.011000000
H     2.024000000     0.219000000    -0.814000000
C    -0.159000000     0.356000000    -0.463000000
H    -0.221000000    -0.538000000     0.173000000
C    -1.305000000     1.131000000    -0.753000000
H    -2.246000000     0.818000000    -0.308000000
C    -1.145000000     2.244000000    -1.612000000
H    -1.975000000     2.945000000    -1.616000000
C     0.081000000     2.614000000    -2.180000000
C     0.243000000     3.876000000    -2.965000000
O    -0.729000000     4.550000000    -3.117000000
O     1.298000000     4.189000000    -3.501000000
O    -3.580000000     7.780000000    -2.536000000
H    -4.478000000     7.462000000    -2.632000000
H    -3.113000000     7.057000000    -2.118000000
O     3.111000000     8.038000000    -6.009000000
H     2.571000000     7.433000000    -5.501000000
H     3.833000000     7.500000000    -6.335000000
O    -2.505000000     5.713000000    -1.454000000
H    -2.025000000     5.327000000    -2.186000000
H    -1.882000000     5.705000000    -0.727000000
O     0.470000000     1.935000000     2.045000000
H    -0.363000000     2.041000000     1.585000000
H     0.999000000     2.679000000     1.755000000
O    -0.303000000     8.154000000    -5.697000000
H     0.091000000     7.608000000    -6.377000000
H     0.304000000     8.094000000    -4.960000000
O     1.766000000     4.600000000     0.822000000
H     2.474000000     5.233000000     0.943000000
H     1.976000000     4.160000000    -0.001000000
O     1.635000000     6.769000000    -4.212000000
H     1.758000000     5.884000000    -3.867000000
H     1.765000000     7.340000000    -3.456000000
O    -0.943000000     5.603000000     0.926000000
H    -0.188000000     5.075000000     1.187000000
H    -1.307000000     5.924000000     1.750000000
O     3.244000000     5.133000000    -1.902000000
H     3.825000000     5.605000000    -2.499000000
H     2.633000000     4.673000000    -2.476000000
O    -3.846000000     6.644000000    -4.960000000
H    -3.667000000     7.385000000    -4.381000000
H    -2.991000000     6.410000000    -5.321000000
O    -1.500000000     4.714000000    -5.635000000
H    -1.179000000     4.777000000    -4.735000000
H    -1.801000000     3.810000000    -5.720000000
O    -3.777000000     5.212000000    -7.494000000
H    -4.204000000     4.362000000    -7.596000000
H    -3.151000000     5.081000000    -6.781000000
O     2.248000000     4.331000000    -6.021000000
H     2.055000000     4.457000000    -5.092000000
H     1.826000000     5.072000000    -6.456000000
O     3.273000000     3.032000000    -8.203000000
H     3.040000000     3.353000000    -7.331000000
H     3.012000000     2.111000000    -8.196000000
O     5.338000000     4.024000000    -5.271000000
H     5.405000000     3.401000000    -4.548000000
H     5.687000000     3.552000000    -6.027000000
O    -0.994000000     9.714000000    -1.345000000
H    -0.768000000    10.172000000    -0.535000000
H    -0.610000000     8.843000000    -1.243000000
O     0.446000000     6.173000000    -7.290000000
H     0.183000000     5.975000000    -8.189000000
H    -0.131000000     5.635000000    -6.748000000
O     2.848000000     7.277000000     0.586000000
H     3.732000000     6.910000000     0.617000000
H     2.571000000     7.157000000    -0.323000000
O     0.244000000     6.944000000    -1.156000000
H    -0.097000000     6.456000000    -1.905000000
H    -0.136000000     6.508000000    -0.393000000
