215
-1452.05886
C    -3.331000000     1.290000000     3.437000000
H    -2.560000000     0.798000000     4.026000000
C    -4.046000000     0.564000000     2.477000000
C    -4.860000000     1.230000000     1.543000000
H    -5.371000000     0.715000000     0.734000000
C    -3.647000000    -0.910000000     2.127000000
O    -3.336000000    -1.636000000     3.321000000
H    -2.769000000    -0.750000000     1.485000000
O    -4.568000000    -1.623000000     1.298000000
C    -4.034000000    -2.251000000     0.238000000
C    -3.985000000    -1.524000000    -0.909000000
H    -4.461000000    -0.551000000    -0.990000000
C    -3.439000000    -2.143000000    -2.024000000
O    -3.481000000    -1.540000000    -3.284000000
C    -2.843000000    -3.427000000    -1.877000000
C    -2.120000000    -4.069000000    -3.173000000
H    -2.085000000    -5.155000000    -3.068000000
C    -0.725000000    -3.576000000    -3.277000000
C     0.333000000    -4.200000000    -2.716000000
H     0.192000000    -5.138000000    -2.185000000
H    -2.669000000    -3.761000000    -4.065000000
C    -2.821000000    -4.065000000    -0.631000000
H    -2.205000000    -4.937000000    -0.427000000
C    -3.391000000    -3.438000000     0.432000000
C    -3.229000000    -4.147000000     1.788000000
H    -3.150000000    -5.213000000     1.562000000
H    -4.097000000    -3.941000000     2.418000000
C    -2.013000000    -3.564000000     2.591000000
C    -0.798000000    -4.232000000     2.451000000
H    -0.714000000    -5.165000000     1.900000000
C    -2.190000000    -2.409000000     3.391000000
C    -1.054000000    -1.890000000     4.043000000
H    -1.185000000    -0.922000000     4.519000000
C     0.196000000    -2.577000000     3.869000000
O     1.255000000    -2.006000000     4.588000000
C     2.229000000    -1.354000000     3.764000000
C     2.728000000    -0.024000000     4.293000000
C     3.830000000     0.672000000     3.724000000
H     4.345000000     0.185000000     2.900000000
C     1.940000000     0.623000000     5.264000000
H     1.102000000     0.142000000     5.763000000
O     3.327000000    -2.260000000     3.467000000
H     1.723000000    -0.975000000     2.863000000
C     0.308000000    -3.826000000     3.134000000
C     1.637000000    -4.485000000     3.018000000
H     1.574000000    -5.558000000     2.830000000
H     2.198000000    -4.499000000     3.955000000
C     2.465000000    -3.814000000     1.903000000
C     2.291000000    -4.265000000     0.590000000
H     1.511000000    -4.997000000     0.395000000
C     3.302000000    -2.747000000     2.194000000
C     3.943000000    -2.094000000     1.107000000
H     4.582000000    -1.264000000     1.396000000
C     3.769000000    -2.597000000    -0.207000000
O     4.415000000    -1.898000000    -1.223000000
C     3.593000000    -1.201000000    -2.215000000
C     4.358000000     0.061000000    -2.620000000
C     5.086000000     0.830000000    -1.726000000
H     5.223000000     0.477000000    -0.707000000
C     3.986000000     0.654000000    -3.843000000
H     3.266000000     0.209000000    -4.525000000
O     3.129000000    -1.938000000    -3.300000000
H     2.678000000    -0.886000000    -1.692000000
C     2.925000000    -3.680000000    -0.468000000
C     2.788000000    -4.345000000    -1.784000000
H     2.401000000    -5.362000000    -1.698000000
H     3.752000000    -4.385000000    -2.296000000
C     1.639000000    -3.693000000    -2.626000000
C     1.875000000    -2.495000000    -3.298000000
C     0.804000000    -1.825000000    -3.937000000
H     1.044000000    -0.856000000    -4.366000000
C    -0.514000000    -2.320000000    -3.924000000
O    -1.535000000    -1.540000000    -4.430000000
C    -2.362000000    -0.746000000    -3.576000000
H    -1.790000000    -0.543000000    -2.659000000
C    -2.660000000     0.667000000    -4.098000000
C    -3.819000000     1.263000000    -3.765000000
H    -4.535000000     0.701000000    -3.170000000
C    -1.651000000     1.358000000    -4.742000000
H    -0.694000000     0.858000000    -4.870000000
C    -1.852000000     2.667000000    -5.160000000
O    -0.915000000     3.357000000    -5.856000000
C    -3.027000000     3.269000000    -4.789000000
H    -3.233000000     4.317000000    -4.990000000
C    -4.041000000     2.595000000    -4.049000000
O    -5.276000000     3.238000000    -3.800000000
C    -6.106000000     2.924000000    -2.698000000
C    -5.834000000     3.416000000    -1.387000000
H    -5.073000000     4.162000000    -1.175000000
C    -7.073000000     1.889000000    -2.839000000
H    -7.146000000     1.518000000    -3.858000000
C    -7.687000000     1.370000000    -1.736000000
H    -8.397000000     0.550000000    -1.803000000
C    -7.423000000     1.883000000    -0.458000000
H    -7.903000000     1.474000000     0.428000000
C    -6.455000000     2.872000000    -0.300000000
O    -6.065000000     3.253000000     0.948000000
C    -5.136000000     2.562000000     1.698000000
C    -4.498000000     3.252000000     2.737000000
H    -4.670000000     4.312000000     2.907000000
C    -3.596000000     2.640000000     3.612000000
O    -2.831000000     3.343000000     4.535000000
C    -2.040000000     2.844000000     5.598000000
C    -0.667000000     3.059000000     5.591000000
H    -0.137000000     3.564000000     4.788000000
C    -2.694000000     2.336000000     6.749000000
H    -3.780000000     2.297000000     6.721000000
C    -1.957000000     2.024000000     7.887000000
H    -2.408000000     1.689000000     8.818000000
C    -0.562000000     2.024000000     7.852000000
H    -0.017000000     1.692000000     8.733000000
C     0.058000000     2.549000000     6.696000000
O     1.416000000     2.577000000     6.533000000
C     2.112000000     1.947000000     5.570000000
C     3.269000000     2.671000000     5.052000000
H     3.420000000     3.710000000     5.331000000
C     4.017000000     2.052000000     4.046000000
O     5.114000000     2.862000000     3.564000000
C     5.905000000     2.477000000     2.511000000
C     5.539000000     2.832000000     1.232000000
H     4.558000000     3.270000000     1.060000000
C     7.178000000     1.960000000     2.765000000
H     7.531000000     1.780000000     3.777000000
C     8.101000000     1.858000000     1.683000000
H     9.119000000     1.525000000     1.871000000
C     7.642000000     2.122000000     0.407000000
H     8.355000000     2.048000000    -0.411000000
C     6.372000000     2.613000000     0.180000000
O     6.057000000     2.991000000    -1.093000000
C     5.445000000     2.140000000    -2.004000000
C     5.142000000     2.662000000    -3.255000000
H     5.429000000     3.701000000    -3.390000000
C     4.406000000     1.950000000    -4.171000000
O     3.774000000     2.646000000    -5.134000000
C     2.585000000     2.329000000    -5.795000000
C     2.785000000     1.676000000    -7.009000000
H     3.726000000     1.177000000    -7.225000000
C     1.643000000     1.488000000    -7.788000000
H     1.730000000     0.893000000    -8.693000000
C     0.456000000     2.146000000    -7.427000000
H    -0.402000000     2.006000000    -8.080000000
C     0.266000000     2.745000000    -6.185000000
C     1.379000000     2.808000000    -5.358000000
H     1.362000000     3.346000000    -4.414000000
C     1.097000000     3.247000000    -1.795000000
H     1.938000000     3.689000000    -2.323000000
C     1.265000000     2.048000000    -1.041000000
H     2.198000000     1.490000000    -1.065000000
C     0.158000000     1.500000000    -0.355000000
H     0.142000000     0.666000000     0.276000000
C    -1.080000000     2.142000000    -0.479000000
H    -2.009000000     1.693000000    -0.138000000
C    -1.167000000     3.324000000    -1.109000000
H    -2.167000000     3.726000000    -1.252000000
C    -0.111000000     3.903000000    -1.798000000
C    -0.293000000     5.233000000    -2.472000000
O    -1.346000000     5.841000000    -2.238000000
O     0.551000000     5.741000000    -3.170000000
O    -2.508000000     5.394000000    -8.061000000
H    -3.153000000     5.992000000    -7.682000000
H    -1.669000000     5.836000000    -7.936000000
O     2.167000000     5.332000000    -7.383000000
H     1.875000000     5.062000000    -8.253000000
H     1.382000000     5.686000000    -6.965000000
O     1.866000000     5.033000000     0.580000000
H     1.065000000     5.543000000     0.697000000
H     2.027000000     5.052000000    -0.364000000
O     2.039000000     8.407000000     1.497000000
H     1.922000000     7.686000000     0.879000000
H     2.112000000     9.186000000     0.945000000
O     0.032000000     6.330000000    -5.894000000
H    -0.595000000     5.610000000    -5.826000000
H     0.039000000     6.724000000    -5.022000000
O     5.174000000     6.503000000    -3.180000000
H     5.684000000     6.083000000    -3.873000000
H     4.262000000     6.382000000    -3.447000000
O    -3.990000000     7.911000000    -6.073000000
H    -3.367000000     8.623000000    -5.933000000
H    -3.849000000     7.320000000    -5.334000000
O     3.828000000     6.181000000     2.094000000
H     3.306000000     5.580000000     1.562000000
H     3.348000000     7.008000000     2.063000000
O     1.734000000     7.816000000    -1.438000000
H     0.901000000     8.256000000    -1.267000000
H     1.499000000     7.060000000    -1.976000000
O    -0.531000000     6.527000000     1.027000000
H    -1.077000000     6.482000000     0.242000000
H    -1.154000000     6.621000000     1.747000000
O    -0.928000000     8.248000000    -3.498000000
H    -1.195000000     7.347000000    -3.318000000
H    -0.819000000     8.643000000    -2.633000000
O     2.769000000     6.097000000    -4.407000000
H     1.862000000     5.925000000    -4.156000000
H     2.932000000     5.504000000    -5.141000000
O     4.395000000     9.618000000    -1.400000000
H     3.751000000     8.929000000    -1.568000000
H     5.155000000     9.154000000    -1.048000000
O    -0.769000000     9.075000000    -0.924000000
H    -0.341000000     9.701000000    -0.340000000
H    -1.695000000     9.316000000    -0.896000000
O    -3.463000000     6.438000000    -3.701000000
H    -2.763000000     5.945000000    -3.274000000
H    -4.265000000     5.979000000    -3.452000000
O     1.689000000     8.610000000    -4.382000000
H     0.870000000     8.574000000    -3.889000000
H     1.947000000     7.694000000    -4.487000000
O    -0.399000000     9.072000000    -7.301000000
H    -0.179000000     8.515000000    -6.555000000
H    -0.396000000     8.479000000    -8.052000000
O    -3.620000000     6.350000000    -0.448000000
H    -2.889000000     5.881000000    -0.849000000
H    -3.477000000     7.266000000    -0.686000000
O    -2.561000000     9.851000000    -4.888000000
H    -3.147000000     9.701000000    -4.147000000
H    -1.722000000     9.486000000    -4.607000000
