215
-1431.44474
C    -2.819000000     2.424000000     4.282000000
H    -2.207000000     2.038000000     5.094000000
C    -3.270000000     1.613000000     3.300000000
C    -4.013000000     2.150000000     2.225000000
H    -4.337000000     1.491000000     1.424000000
C    -2.820000000     0.149000000     3.269000000
O    -2.362000000    -0.431000000     4.533000000
H    -2.044000000     0.062000000     2.494000000
O    -3.988000000    -0.661000000     2.767000000
C    -3.752000000    -1.636000000     1.846000000
C    -4.311000000    -1.480000000     0.585000000
H    -4.723000000    -0.490000000     0.407000000
C    -3.889000000    -2.267000000    -0.432000000
O    -4.168000000    -1.821000000    -1.748000000
C    -3.286000000    -3.547000000    -0.146000000
C    -2.966000000    -4.491000000    -1.252000000
H    -3.021000000    -5.528000000    -0.914000000
C    -1.669000000    -4.239000000    -2.006000000
C    -0.516000000    -4.786000000    -1.412000000
H    -0.630000000    -5.512000000    -0.611000000
H    -3.741000000    -4.421000000    -2.019000000
C    -2.881000000    -3.816000000     1.147000000
H    -2.401000000    -4.771000000     1.343000000
C    -3.060000000    -2.857000000     2.184000000
C    -2.775000000    -3.144000000     3.628000000
H    -2.807000000    -4.227000000     3.767000000
H    -3.512000000    -2.763000000     4.338000000
C    -1.428000000    -2.556000000     3.935000000
C    -0.332000000    -3.368000000     3.820000000
H    -0.608000000    -4.374000000     3.513000000
C    -1.313000000    -1.245000000     4.405000000
C    -0.030000000    -0.766000000     4.765000000
H     0.015000000     0.231000000     5.196000000
C     1.030000000    -1.556000000     4.553000000
O     2.294000000    -0.965000000     4.600000000
C     2.883000000    -0.529000000     3.318000000
C     3.432000000     0.883000000     3.245000000
C     4.715000000     1.218000000     2.711000000
H     5.400000000     0.474000000     2.312000000
C     2.579000000     1.956000000     3.540000000
H     1.578000000     1.722000000     3.892000000
O     3.855000000    -1.514000000     2.826000000
H     1.991000000    -0.598000000     2.678000000
C     0.932000000    -2.909000000     4.059000000
C     2.131000000    -3.773000000     3.680000000
H     1.800000000    -4.804000000     3.817000000
H     2.881000000    -3.730000000     4.472000000
C     2.635000000    -3.486000000     2.268000000
C     2.171000000    -4.257000000     1.138000000
H     1.478000000    -5.066000000     1.354000000
C     3.394000000    -2.398000000     1.857000000
C     3.897000000    -2.227000000     0.576000000
H     4.493000000    -1.355000000     0.318000000
C     3.470000000    -3.093000000    -0.459000000
O     3.672000000    -2.670000000    -1.785000000
C     2.617000000    -2.033000000    -2.425000000
C     3.079000000    -0.831000000    -3.181000000
C     4.004000000     0.022000000    -2.564000000
H     4.246000000    -0.053000000    -1.507000000
C     2.632000000    -0.516000000    -4.465000000
H     1.838000000    -1.074000000    -4.955000000
O     2.092000000    -2.999000000    -3.373000000
H     1.875000000    -1.711000000    -1.679000000
C     2.536000000    -4.110000000    -0.151000000
C     1.967000000    -5.071000000    -1.153000000
H     1.699000000    -5.989000000    -0.626000000
H     2.801000000    -5.321000000    -1.812000000
C     0.796000000    -4.494000000    -1.927000000
C     0.868000000    -3.591000000    -2.958000000
C    -0.274000000    -3.050000000    -3.562000000
H    -0.223000000    -2.331000000    -4.376000000
C    -1.581000000    -3.312000000    -3.045000000
O    -2.639000000    -2.475000000    -3.539000000
C    -3.111000000    -1.400000000    -2.759000000
H    -2.251000000    -1.075000000    -2.155000000
C    -3.371000000    -0.160000000    -3.561000000
C    -4.407000000     0.686000000    -3.199000000
H    -5.138000000     0.378000000    -2.455000000
C    -2.494000000     0.309000000    -4.562000000
H    -1.572000000    -0.216000000    -4.800000000
C    -2.778000000     1.455000000    -5.301000000
O    -2.027000000     1.832000000    -6.445000000
C    -3.904000000     2.214000000    -5.038000000
H    -4.188000000     3.114000000    -5.578000000
C    -4.693000000     1.787000000    -3.950000000
O    -5.737000000     2.514000000    -3.503000000
C    -6.029000000     2.714000000    -2.191000000
C    -5.056000000     3.260000000    -1.326000000
H    -4.103000000     3.636000000    -1.689000000
C    -7.299000000     2.371000000    -1.705000000
H    -7.961000000     1.740000000    -2.292000000
C    -7.513000000     2.539000000    -0.363000000
H    -8.393000000     2.029000000     0.022000000
C    -6.550000000     3.010000000     0.483000000
H    -6.790000000     3.014000000     1.543000000
C    -5.305000000     3.399000000     0.041000000
O    -4.548000000     4.098000000     0.919000000
C    -4.057000000     3.581000000     2.109000000
C    -3.642000000     4.379000000     3.156000000
H    -3.776000000     5.452000000     3.049000000
C    -3.029000000     3.788000000     4.262000000
O    -2.311000000     4.611000000     5.075000000
C    -1.004000000     4.520000000     5.359000000
C    -0.026000000     4.538000000     4.368000000
H    -0.358000000     4.671000000     3.341000000
C    -0.571000000     4.287000000     6.704000000
H    -1.284000000     4.362000000     7.521000000
C     0.795000000     4.055000000     6.995000000
H     1.093000000     3.774000000     8.002000000
C     1.702000000     4.118000000     5.938000000
H     2.762000000     3.894000000     6.025000000
C     1.272000000     4.386000000     4.668000000
O     2.129000000     4.331000000     3.636000000
C     2.955000000     3.254000000     3.396000000
C     4.290000000     3.526000000     3.002000000
H     4.465000000     4.593000000     2.888000000
C     5.138000000     2.507000000     2.565000000
O     6.307000000     2.817000000     1.941000000
C     6.562000000     2.317000000     0.662000000
C     5.703000000     2.325000000    -0.468000000
H     4.763000000     2.866000000    -0.542000000
C     7.791000000     1.685000000     0.586000000
H     8.478000000     1.661000000     1.428000000
C     8.260000000     1.071000000    -0.605000000
H     9.274000000     0.680000000    -0.598000000
C     7.402000000     1.122000000    -1.717000000
H     7.806000000     0.748000000    -2.654000000
C     6.239000000     1.788000000    -1.661000000
O     5.451000000     2.015000000    -2.728000000
C     4.440000000     1.185000000    -3.211000000
C     4.040000000     1.377000000    -4.517000000
H     4.466000000     2.219000000    -5.057000000
C     3.121000000     0.510000000    -5.189000000
O     2.749000000     0.786000000    -6.523000000
C     1.394000000     0.506000000    -6.788000000
C     1.083000000    -0.703000000    -7.438000000
H     1.879000000    -1.415000000    -7.640000000
C    -0.212000000    -1.038000000    -7.797000000
H    -0.297000000    -2.018000000    -8.261000000
C    -1.154000000    -0.105000000    -7.586000000
H    -2.162000000    -0.440000000    -7.818000000
C    -0.927000000     1.067000000    -6.843000000
C     0.337000000     1.395000000    -6.505000000
H     0.567000000     2.326000000    -5.993000000
C     1.407000000     2.074000000    -1.501000000
H     2.405000000     2.369000000    -1.816000000
C     1.196000000     0.927000000    -0.777000000
H     2.052000000     0.360000000    -0.420000000
C    -0.065000000     0.354000000    -0.556000000
H    -0.218000000    -0.423000000     0.118000000
C    -1.137000000     1.129000000    -0.987000000
H    -2.154000000     0.951000000    -0.647000000
C    -0.953000000     2.197000000    -1.906000000
H    -1.859000000     2.667000000    -2.279000000
C     0.300000000     2.671000000    -2.152000000
C     0.578000000     3.786000000    -3.152000000
O    -0.422000000     4.366000000    -3.589000000
O     1.716000000     4.161000000    -3.425000000
O    -3.730000000     7.486000000    -3.765000000
H    -3.970000000     8.293000000    -3.309000000
H    -2.911000000     7.212000000    -3.352000000
O    -2.444000000     7.837000000     0.240000000
H    -2.635000000     8.311000000     1.049000000
H    -2.247000000     6.945000000     0.526000000
O    -0.049000000     3.670000000     0.976000000
H     0.783000000     3.505000000     1.420000000
H    -0.091000000     3.003000000     0.290000000
O     0.069000000     7.184000000    -5.711000000
H    -0.666000000     6.574000000    -5.769000000
H     0.330000000     7.159000000    -4.790000000
O    -1.472000000     9.704000000    -5.481000000
H    -1.721000000     8.788000000    -5.356000000
H    -0.889000000     9.692000000    -6.240000000
O     2.461000000     5.819000000     0.310000000
H     2.804000000     5.190000000    -0.324000000
H     2.177000000     6.563000000    -0.221000000
O     1.686000000     6.787000000    -3.415000000
H     1.519000000     5.850000000    -3.312000000
H     2.433000000     6.833000000    -4.011000000
O    -0.323000000     6.320000000     1.255000000
H     0.240000000     6.770000000     0.625000000
H    -0.328000000     5.409000000     0.963000000
O     3.960000000     4.856000000    -2.181000000
H     4.308000000     5.389000000    -2.896000000
H     3.232000000     4.374000000    -2.573000000
O    -2.151000000     5.441000000    -5.387000000
H    -1.707000000     4.893000000    -4.740000000
H    -2.826000000     5.902000000    -4.889000000
O     2.692000000     4.676000000    -5.842000000
H     2.296000000     4.386000000    -5.020000000
H     1.995000000     5.159000000    -6.286000000
O     1.404000000     3.112000000    -8.712000000
H     2.104000000     2.828000000    -8.125000000
H     0.707000000     3.411000000    -8.128000000
O     4.783000000     7.203000000    -3.959000000
H     5.372000000     7.051000000    -4.698000000
H     5.184000000     7.926000000    -3.477000000
O     5.270000000     4.214000000    -6.610000000
H     4.341000000     4.363000000    -6.434000000
H     5.282000000     3.475000000    -7.218000000
O    -0.616000000     4.341000000    -7.486000000
H    -1.225000000     4.402000000    -8.222000000
H    -1.116000000     4.657000000    -6.734000000
O     5.991000000     5.655000000    -0.230000000
H     5.330000000     5.749000000    -0.916000000
H     6.649000000     5.073000000    -0.609000000
O     0.491000000     7.666000000    -1.293000000
H     0.802000000     8.465000000    -0.865000000
H     1.077000000     7.553000000    -2.042000000
O    -1.588000000     6.603000000    -2.856000000
H    -1.189000000     5.825000000    -3.246000000
H    -0.923000000     6.937000000    -2.255000000
O     0.689000000     8.595000000    -7.919000000
H     0.547000000     7.943000000    -7.233000000
H     1.465000000     8.285000000    -8.387000000
