215
-1449.86695
C    -3.393000000     2.475000000     3.497000000
H    -2.803000000     2.184000000     4.363000000
C    -3.958000000     1.520000000     2.702000000
C    -4.666000000     1.887000000     1.570000000
H    -4.985000000     1.176000000     0.812000000
C    -3.486000000     0.002000000     2.840000000
O    -3.085000000    -0.287000000     4.217000000
H    -2.611000000    -0.137000000     2.188000000
O    -4.568000000    -0.867000000     2.355000000
C    -4.197000000    -1.846000000     1.534000000
C    -4.277000000    -1.626000000     0.161000000
H    -4.809000000    -0.738000000    -0.168000000
C    -3.840000000    -2.473000000    -0.814000000
O    -3.911000000    -2.101000000    -2.154000000
C    -3.191000000    -3.631000000    -0.323000000
C    -2.619000000    -4.700000000    -1.292000000
H    -2.709000000    -5.759000000    -1.045000000
C    -1.182000000    -4.349000000    -1.615000000
C    -0.077000000    -4.906000000    -0.830000000
H    -0.281000000    -5.681000000    -0.096000000
H    -3.236000000    -4.540000000    -2.179000000
C    -2.882000000    -3.753000000     1.036000000
H    -2.321000000    -4.613000000     1.391000000
C    -3.425000000    -2.912000000     1.998000000
C    -3.191000000    -3.130000000     3.469000000
H    -3.217000000    -4.216000000     3.578000000
H    -4.101000000    -2.724000000     3.916000000
C    -1.908000000    -2.452000000     3.919000000
C    -0.666000000    -3.132000000     3.858000000
H    -0.587000000    -4.210000000     3.746000000
C    -1.960000000    -1.132000000     4.353000000
C    -0.782000000    -0.468000000     4.572000000
H    -0.829000000     0.616000000     4.645000000
C     0.499000000    -1.087000000     4.536000000
O     1.601000000    -0.299000000     4.570000000
C     2.566000000    -0.087000000     3.440000000
C     2.939000000     1.352000000     3.308000000
C     4.269000000     1.650000000     2.937000000
H     5.064000000     0.948000000     2.697000000
C     2.069000000     2.363000000     3.754000000
H     1.049000000     2.145000000     4.062000000
O     3.631000000    -1.028000000     3.336000000
H     1.914000000    -0.327000000     2.588000000
C     0.557000000    -2.446000000     4.175000000
C     1.863000000    -3.224000000     4.187000000
H     1.840000000    -4.308000000     4.312000000
H     2.452000000    -2.961000000     5.068000000
C     2.555000000    -3.152000000     2.815000000
C     2.297000000    -4.127000000     1.845000000
H     1.545000000    -4.881000000     2.059000000
C     3.391000000    -2.084000000     2.517000000
C     3.982000000    -1.963000000     1.284000000
H     4.615000000    -1.118000000     1.026000000
C     3.704000000    -2.890000000     0.296000000
O     4.223000000    -2.644000000    -0.921000000
C     3.253000000    -2.201000000    -1.893000000
C     3.819000000    -0.978000000    -2.670000000
C     4.768000000    -0.080000000    -2.088000000
H     5.159000000    -0.205000000    -1.081000000
C     3.295000000    -0.740000000    -3.926000000
H     2.692000000    -1.488000000    -4.436000000
O     2.633000000    -3.255000000    -2.672000000
H     2.448000000    -1.694000000    -1.339000000
C     2.850000000    -3.959000000     0.588000000
C     2.466000000    -4.981000000    -0.432000000
H     2.395000000    -5.962000000     0.042000000
H     3.305000000    -5.150000000    -1.111000000
C     1.255000000    -4.494000000    -1.131000000
C     1.425000000    -3.577000000    -2.248000000
C     0.330000000    -3.060000000    -2.919000000
H     0.446000000    -2.522000000    -3.856000000
C    -0.960000000    -3.403000000    -2.577000000
O    -1.948000000    -2.859000000    -3.399000000
C    -2.697000000    -1.723000000    -2.869000000
H    -2.046000000    -1.272000000    -2.106000000
C    -2.903000000    -0.584000000    -3.943000000
C    -4.012000000     0.263000000    -3.721000000
H    -4.693000000     0.059000000    -2.898000000
C    -1.978000000    -0.290000000    -4.971000000
H    -1.155000000    -0.987000000    -5.102000000
C    -2.145000000     0.910000000    -5.731000000
O    -1.386000000     1.167000000    -6.850000000
C    -3.248000000     1.706000000    -5.528000000
H    -3.284000000     2.610000000    -6.132000000
C    -4.162000000     1.390000000    -4.507000000
O    -5.300000000     2.155000000    -4.380000000
C    -5.958000000     2.355000000    -3.199000000
C    -5.451000000     3.071000000    -2.135000000
H    -4.584000000     3.694000000    -2.340000000
C    -7.079000000     1.558000000    -2.927000000
H    -7.485000000     0.902000000    -3.693000000
C    -7.664000000     1.449000000    -1.657000000
H    -8.497000000     0.753000000    -1.599000000
C    -7.073000000     2.090000000    -0.565000000
H    -7.519000000     2.136000000     0.426000000
C    -6.019000000     2.994000000    -0.850000000
O    -5.537000000     3.668000000     0.176000000
C    -4.906000000     3.226000000     1.317000000
C    -4.465000000     4.251000000     2.194000000
H    -4.572000000     5.322000000     2.041000000
C    -3.670000000     3.832000000     3.273000000
O    -3.164000000     4.791000000     4.047000000
C    -1.937000000     4.697000000     4.726000000
C    -0.776000000     4.687000000     4.012000000
H    -0.864000000     4.910000000     2.951000000
C    -1.846000000     4.704000000     6.116000000
H    -2.763000000     4.795000000     6.692000000
C    -0.599000000     4.603000000     6.765000000
H    -0.596000000     4.670000000     7.850000000
C     0.567000000     4.595000000     6.056000000
H     1.538000000     4.686000000     6.537000000
C     0.465000000     4.664000000     4.688000000
O     1.619000000     4.784000000     3.953000000
C     2.459000000     3.693000000     3.696000000
C     3.742000000     4.004000000     3.217000000
H     4.042000000     5.042000000     3.097000000
C     4.623000000     3.002000000     2.829000000
O     5.855000000     3.391000000     2.333000000
C     6.520000000     2.694000000     1.331000000
C     5.866000000     2.407000000     0.101000000
H     4.846000000     2.762000000    -0.024000000
C     7.829000000     2.205000000     1.528000000
H     8.193000000     2.317000000     2.546000000
C     8.603000000     1.786000000     0.465000000
H     9.656000000     1.575000000     0.633000000
C     8.022000000     1.644000000    -0.800000000
H     8.608000000     1.447000000    -1.695000000
C     6.620000000     1.968000000    -0.989000000
O     6.107000000     1.916000000    -2.286000000
C     5.147000000     1.070000000    -2.743000000
C     4.618000000     1.266000000    -4.014000000
H     4.932000000     2.156000000    -4.553000000
C     3.746000000     0.368000000    -4.643000000
O     3.290000000     0.689000000    -5.900000000
C     2.158000000     0.218000000    -6.431000000
C     2.210000000    -0.815000000    -7.314000000
H     3.208000000    -1.206000000    -7.490000000
C     1.077000000    -1.216000000    -8.001000000
H     1.174000000    -1.998000000    -8.750000000
C    -0.186000000    -0.589000000    -7.891000000
H    -1.074000000    -0.958000000    -8.397000000
C    -0.224000000     0.477000000    -6.975000000
C     0.907000000     0.907000000    -6.316000000
H     0.789000000     1.714000000    -5.598000000
C     0.469000000     1.977000000    -1.713000000
H     1.241000000     2.468000000    -2.300000000
C     0.707000000     0.876000000    -0.929000000
H     1.746000000     0.560000000    -0.877000000
C    -0.308000000     0.255000000    -0.242000000
H    -0.126000000    -0.580000000     0.422000000
C    -1.595000000     0.772000000    -0.449000000
H    -2.401000000     0.124000000    -0.115000000
C    -1.903000000     1.764000000    -1.375000000
H    -2.928000000     2.012000000    -1.638000000
C    -0.849000000     2.402000000    -1.990000000
C    -1.025000000     3.604000000    -2.958000000
O    -2.067000000     4.291000000    -2.945000000
O    -0.073000000     3.923000000    -3.701000000
O     3.286000000     4.875000000    -4.781000000
H     3.384000000     4.071000000    -5.291000000
H     4.174000000     5.088000000    -4.497000000
O    -1.363000000     3.077000000     1.166000000
H    -2.298000000     2.930000000     1.028000000
H    -0.939000000     2.319000000     0.762000000
O     1.664000000     5.860000000    -7.970000000
H     1.273000000     5.261000000    -7.333000000
H     2.460000000     6.177000000    -7.542000000
O    -0.882000000     9.572000000    -3.030000000
H     0.066000000     9.614000000    -3.155000000
H    -1.167000000     8.851000000    -3.591000000
O    -5.167000000     6.450000000    -2.865000000
H    -5.309000000     5.569000000    -2.521000000
H    -5.644000000     7.022000000    -2.264000000
O     3.171000000     6.932000000    -0.835000000
H     2.925000000     6.188000000    -1.384000000
H     4.126000000     6.961000000    -0.884000000
O    -2.011000000     4.624000000    -8.114000000
H    -1.878000000     5.564000000    -8.234000000
H    -2.473000000     4.552000000    -7.279000000
O     1.351000000     4.501000000     0.673000000
H     0.582000000     3.935000000     0.746000000
H     1.375000000     4.754000000    -0.250000000
O     1.758000000     4.999000000    -2.198000000
H     2.295000000     5.099000000    -2.984000000
H     0.945000000     4.604000000    -2.513000000
O    -0.298000000     8.329000000    -0.597000000
H     0.080000000     7.453000000    -0.522000000
H    -0.798000000     8.306000000    -1.412000000
O     2.056000000     7.293000000    -5.541000000
H     2.401000000     6.400000000    -5.535000000
H     1.134000000     7.191000000    -5.777000000
O    -0.797000000     6.899000000    -4.530000000
H    -0.564000000     6.182000000    -3.941000000
H    -1.498000000     6.543000000    -5.077000000
O     0.116000000     4.415000000    -6.325000000
H    -0.039000000     4.221000000    -5.400000000
H    -0.598000000     3.975000000    -6.785000000
O     3.513000000     3.221000000    -7.307000000
H     3.537000000     3.075000000    -8.253000000
H     3.167000000     2.404000000    -6.948000000
O    -2.795000000     5.093000000    -5.473000000
H    -2.681000000     4.787000000    -4.573000000
H    -3.668000000     5.486000000    -5.484000000
O    -1.262000000     2.564000000    -9.735000000
H    -1.434000000     3.088000000   -10.518000000
H    -1.536000000     3.123000000    -9.008000000
O    -4.932000000     6.625000000    -5.620000000
H    -5.641000000     5.994000000    -5.742000000
H    -4.833000000     6.694000000    -4.671000000
O    -3.001000000     6.250000000    -0.979000000
H    -2.709000000     5.561000000    -1.575000000
H    -3.349000000     6.932000000    -1.554000000
O     2.219000000     6.901000000     1.976000000
H     1.653000000     6.138000000     1.864000000
H     2.868000000     6.822000000     1.276000000
