215
-1437.42640
C    -2.869000000     2.833000000     3.551000000
H    -2.240000000     2.414000000     4.332000000
C    -3.703000000     1.959000000     2.821000000
C    -4.515000000     2.478000000     1.796000000
H    -5.052000000     1.754000000     1.188000000
C    -3.328000000     0.421000000     2.805000000
O    -2.806000000     0.074000000     4.146000000
H    -2.459000000     0.434000000     2.131000000
O    -4.438000000    -0.390000000     2.521000000
C    -4.203000000    -1.465000000     1.671000000
C    -4.380000000    -1.370000000     0.329000000
H    -4.700000000    -0.394000000    -0.027000000
C    -3.887000000    -2.345000000    -0.534000000
O    -4.033000000    -2.121000000    -1.916000000
C    -3.281000000    -3.515000000    -0.032000000
C    -2.795000000    -4.690000000    -0.949000000
H    -2.842000000    -5.557000000    -0.287000000
C    -1.434000000    -4.391000000    -1.529000000
C    -0.320000000    -4.982000000    -0.940000000
H    -0.464000000    -5.600000000    -0.057000000
H    -3.552000000    -4.751000000    -1.734000000
C    -3.169000000    -3.674000000     1.357000000
H    -2.797000000    -4.622000000     1.736000000
C    -3.613000000    -2.622000000     2.183000000
C    -3.188000000    -2.722000000     3.637000000
H    -3.156000000    -3.770000000     3.940000000
H    -3.865000000    -2.265000000     4.361000000
C    -1.848000000    -2.113000000     3.886000000
C    -0.754000000    -2.862000000     3.846000000
H    -0.870000000    -3.907000000     3.571000000
C    -1.725000000    -0.797000000     4.218000000
C    -0.459000000    -0.203000000     4.341000000
H    -0.383000000     0.858000000     4.563000000
C     0.655000000    -1.000000000     4.438000000
O     1.880000000    -0.446000000     4.572000000
C     2.629000000    -0.200000000     3.368000000
C     3.248000000     1.207000000     3.457000000
C     4.489000000     1.453000000     2.847000000
H     5.097000000     0.603000000     2.549000000
C     2.594000000     2.323000000     3.929000000
H     1.696000000     2.127000000     4.509000000
O     3.575000000    -1.291000000     3.107000000
H     1.958000000    -0.119000000     2.500000000
C     0.480000000    -2.391000000     4.197000000
C     1.638000000    -3.327000000     4.059000000
H     1.371000000    -4.345000000     4.351000000
H     2.480000000    -3.055000000     4.699000000
C     2.337000000    -3.355000000     2.634000000
C     1.945000000    -4.295000000     1.625000000
H     1.155000000    -5.010000000     1.840000000
C     3.276000000    -2.352000000     2.331000000
C     3.955000000    -2.396000000     1.135000000
H     4.769000000    -1.713000000     0.903000000
C     3.495000000    -3.215000000     0.126000000
O     4.003000000    -2.850000000    -1.107000000
C     3.007000000    -2.398000000    -2.087000000
C     3.537000000    -1.251000000    -2.869000000
C     4.244000000    -0.235000000    -2.263000000
H     4.643000000    -0.419000000    -1.269000000
C     3.086000000    -1.089000000    -4.170000000
H     2.457000000    -1.791000000    -4.711000000
O     2.405000000    -3.432000000    -2.912000000
H     2.142000000    -2.060000000    -1.498000000
C     2.547000000    -4.219000000     0.305000000
C     2.145000000    -5.271000000    -0.638000000
H     1.852000000    -6.165000000    -0.083000000
H     3.012000000    -5.531000000    -1.249000000
C     0.987000000    -4.733000000    -1.404000000
C     1.179000000    -3.870000000    -2.576000000
C     0.078000000    -3.287000000    -3.143000000
H     0.275000000    -2.660000000    -4.009000000
C    -1.211000000    -3.520000000    -2.605000000
O    -2.208000000    -2.889000000    -3.259000000
C    -2.885000000    -1.700000000    -2.657000000
H    -2.231000000    -1.228000000    -1.909000000
C    -3.217000000    -0.708000000    -3.786000000
C    -4.099000000     0.271000000    -3.494000000
H    -4.672000000     0.303000000    -2.571000000
C    -2.417000000    -0.655000000    -4.920000000
H    -1.575000000    -1.282000000    -5.202000000
C    -2.569000000     0.415000000    -5.741000000
O    -1.671000000     0.732000000    -6.812000000
C    -3.554000000     1.387000000    -5.514000000
H    -3.595000000     2.238000000    -6.189000000
C    -4.298000000     1.325000000    -4.372000000
O    -5.033000000     2.434000000    -4.027000000
C    -5.703000000     2.721000000    -2.815000000
C    -5.114000000     3.473000000    -1.817000000
H    -4.158000000     3.922000000    -2.074000000
C    -6.883000000     2.039000000    -2.561000000
H    -7.463000000     1.483000000    -3.293000000
C    -7.538000000     2.298000000    -1.373000000
H    -8.514000000     1.906000000    -1.097000000
C    -6.926000000     3.045000000    -0.361000000
H    -7.412000000     3.148000000     0.606000000
C    -5.714000000     3.587000000    -0.604000000
O    -5.133000000     4.388000000     0.384000000
C    -4.495000000     3.871000000     1.525000000
C    -3.815000000     4.724000000     2.390000000
H    -3.779000000     5.803000000     2.269000000
C    -3.065000000     4.181000000     3.422000000
O    -2.310000000     5.127000000     4.136000000
C    -1.240000000     4.845000000     4.884000000
C     0.060000000     4.696000000     4.237000000
H     0.151000000     4.674000000     3.154000000
C    -1.346000000     4.810000000     6.257000000
H    -2.319000000     4.899000000     6.732000000
C    -0.159000000     4.736000000     7.028000000
H    -0.184000000     4.874000000     8.106000000
C     1.099000000     4.732000000     6.426000000
H     2.049000000     4.727000000     6.955000000
C     1.230000000     4.681000000     5.042000000
O     2.443000000     4.727000000     4.456000000
C     3.061000000     3.620000000     3.842000000
C     4.361000000     3.852000000     3.296000000
H     4.782000000     4.853000000     3.235000000
C     5.066000000     2.703000000     2.789000000
O     6.309000000     2.838000000     2.165000000
C     6.748000000     2.453000000     0.940000000
C     5.853000000     2.301000000    -0.080000000
H     4.844000000     2.695000000     0.010000000
C     8.089000000     2.175000000     0.774000000
H     8.766000000     2.289000000     1.617000000
C     8.510000000     1.831000000    -0.536000000
H     9.588000000     1.775000000    -0.667000000
C     7.648000000     1.696000000    -1.637000000
H     7.949000000     1.502000000    -2.663000000
C     6.255000000     1.887000000    -1.370000000
O     5.353000000     1.935000000    -2.473000000
C     4.576000000     0.941000000    -2.975000000
C     4.104000000     1.015000000    -4.281000000
H     4.383000000     1.874000000    -4.886000000
C     3.360000000     0.037000000    -4.885000000
O     2.984000000     0.038000000    -6.246000000
C     1.771000000    -0.374000000    -6.668000000
C     1.716000000    -1.499000000    -7.474000000
H     2.635000000    -2.035000000    -7.695000000
C     0.519000000    -1.916000000    -7.957000000
H     0.407000000    -2.879000000    -8.448000000
C    -0.647000000    -1.144000000    -7.750000000
H    -1.601000000    -1.479000000    -8.149000000
C    -0.528000000     0.013000000    -6.977000000
C     0.657000000     0.451000000    -6.441000000
H     0.726000000     1.299000000    -5.764000000
C     0.980000000     2.288000000    -1.424000000
H     1.983000000     2.706000000    -1.442000000
C     0.866000000     1.237000000    -0.507000000
H     1.783000000     0.852000000    -0.068000000
C    -0.377000000     0.715000000    -0.281000000
H    -0.298000000    -0.211000000     0.306000000
C    -1.519000000     1.200000000    -0.926000000
H    -2.506000000     0.834000000    -0.658000000
C    -1.428000000     2.363000000    -1.770000000
H    -2.291000000     2.846000000    -2.223000000
C    -0.107000000     2.859000000    -2.021000000
C    -0.029000000     4.190000000    -2.733000000
O    -1.068000000     4.642000000    -3.178000000
O     1.019000000     4.821000000    -2.767000000
O    -1.989000000     8.256000000    -2.426000000
H    -1.178000000     8.568000000    -2.024000000
H    -2.177000000     7.432000000    -1.977000000
O    -1.213000000     3.944000000     0.743000000
H    -1.642000000     3.469000000     1.455000000
H    -1.343000000     3.390000000    -0.026000000
O     0.355000000     8.531000000    -5.536000000
H     0.048000000     7.626000000    -5.478000000
H     1.210000000     8.522000000    -5.107000000
O    -1.499000000    10.105000000    -4.405000000
H    -0.666000000     9.801000000    -4.764000000
H    -1.738000000     9.440000000    -3.759000000
O     1.512000000     5.740000000     0.170000000
H     2.269000000     5.640000000    -0.407000000
H     0.950000000     4.995000000    -0.040000000
O     2.156000000     7.587000000    -3.226000000
H     1.789000000     6.703000000    -3.224000000
H     3.102000000     7.453000000    -3.288000000
O    -0.467000000     6.823000000    -8.265000000
H    -0.468000000     6.496000000    -7.365000000
H    -0.942000000     6.157000000    -8.762000000
O    -0.940000000     6.989000000     1.133000000
H    -0.410000000     7.242000000     0.377000000
H    -0.747000000     6.060000000     1.261000000
O     3.521000000     5.052000000    -1.645000000
H     3.861000000     4.277000000    -2.090000000
H     2.653000000     5.186000000    -2.026000000
O    -3.152000000     7.707000000    -5.755000000
H    -3.057000000     8.657000000    -5.691000000
H    -4.086000000     7.550000000    -5.617000000
O    -1.018000000     5.874000000    -5.615000000
H    -0.780000000     5.477000000    -4.777000000
H    -1.715000000     6.493000000    -5.398000000
O     1.562000000     3.726000000    -5.349000000
H     1.310000000     4.258000000    -4.594000000
H     0.731000000     3.469000000    -5.748000000
O     1.971000000     7.010000000     2.532000000
H     1.685000000     6.544000000     1.746000000
H     2.273000000     6.320000000     3.123000000
O     2.296000000     3.099000000    -8.062000000
H     2.938000000     2.423000000    -7.845000000
H     1.912000000     3.344000000    -7.220000000
O     4.138000000     4.813000000    -6.364000000
H     3.276000000     4.464000000    -6.140000000
H     4.660000000     4.041000000    -6.582000000
O    -0.430000000     3.461000000    -6.912000000
H    -1.159000000     3.187000000    -7.470000000
H    -0.648000000     4.357000000    -6.656000000
O     5.081000000     6.253000000     0.365000000
H     5.073000000     7.064000000    -0.143000000
H     4.459000000     5.682000000    -0.085000000
O     0.490000000     8.132000000    -0.899000000
H     0.909000000     8.561000000    -0.153000000
H     1.210000000     7.935000000    -1.498000000
O    -2.118000000     5.810000000    -1.252000000
H    -1.731000000     5.384000000    -2.017000000
H    -1.680000000     5.404000000    -0.504000000
