215
-1441.40934
C    -3.125000000     2.706000000     3.515000000
H    -2.379000000     2.368000000     4.230000000
C    -3.714000000     1.711000000     2.762000000
C    -4.666000000     2.136000000     1.812000000
H    -5.196000000     1.441000000     1.166000000
C    -3.273000000     0.290000000     2.831000000
O    -2.879000000    -0.160000000     4.154000000
H    -2.436000000     0.172000000     2.127000000
O    -4.356000000    -0.586000000     2.557000000
C    -4.132000000    -1.621000000     1.668000000
C    -4.340000000    -1.345000000     0.304000000
H    -4.729000000    -0.376000000     0.002000000
C    -3.932000000    -2.301000000    -0.626000000
O    -3.886000000    -1.967000000    -2.009000000
C    -3.327000000    -3.542000000    -0.152000000
C    -2.819000000    -4.618000000    -1.178000000
H    -2.722000000    -5.608000000    -0.728000000
C    -1.387000000    -4.323000000    -1.633000000
C    -0.305000000    -4.877000000    -0.893000000
H    -0.387000000    -5.523000000    -0.022000000
H    -3.410000000    -4.579000000    -2.096000000
C    -3.158000000    -3.792000000     1.199000000
H    -2.663000000    -4.672000000     1.602000000
C    -3.573000000    -2.795000000     2.104000000
C    -3.144000000    -2.976000000     3.532000000
H    -3.106000000    -3.985000000     3.950000000
H    -4.005000000    -2.657000000     4.123000000
C    -1.855000000    -2.261000000     3.924000000
C    -0.665000000    -2.996000000     3.891000000
H    -0.712000000    -4.060000000     3.672000000
C    -1.877000000    -0.972000000     4.326000000
C    -0.663000000    -0.368000000     4.592000000
H    -0.623000000     0.696000000     4.810000000
C     0.517000000    -1.038000000     4.523000000
O     1.610000000    -0.291000000     4.631000000
C     2.451000000    -0.106000000     3.430000000
C     3.060000000     1.305000000     3.407000000
C     4.354000000     1.491000000     2.918000000
H     5.021000000     0.692000000     2.606000000
C     2.257000000     2.366000000     3.691000000
H     1.238000000     2.237000000     4.046000000
O     3.464000000    -1.143000000     3.438000000
H     1.860000000    -0.293000000     2.522000000
C     0.517000000    -2.401000000     4.218000000
C     1.722000000    -3.283000000     4.221000000
H     1.458000000    -4.314000000     4.469000000
H     2.445000000    -2.845000000     4.912000000
C     2.421000000    -3.241000000     2.844000000
C     2.132000000    -4.258000000     1.870000000
H     1.394000000    -5.007000000     2.142000000
C     3.303000000    -2.126000000     2.556000000
C     3.758000000    -2.038000000     1.253000000
H     4.426000000    -1.208000000     1.034000000
C     3.560000000    -3.032000000     0.268000000
O     4.054000000    -2.748000000    -1.011000000
C     3.010000000    -2.259000000    -2.005000000
C     3.553000000    -1.094000000    -2.873000000
C     4.317000000    -0.155000000    -2.255000000
H     4.548000000    -0.324000000    -1.206000000
C     3.350000000    -1.066000000    -4.261000000
H     2.803000000    -1.818000000    -4.826000000
O     2.409000000    -3.376000000    -2.779000000
H     2.175000000    -1.809000000    -1.448000000
C     2.682000000    -4.129000000     0.579000000
C     2.197000000    -5.092000000    -0.507000000
H     1.881000000    -5.990000000     0.028000000
H     3.077000000    -5.278000000    -1.126000000
C     1.038000000    -4.529000000    -1.260000000
C     1.179000000    -3.712000000    -2.413000000
C     0.109000000    -3.210000000    -3.186000000
H     0.346000000    -2.346000000    -3.801000000
C    -1.131000000    -3.440000000    -2.689000000
O    -2.108000000    -2.731000000    -3.348000000
C    -2.649000000    -1.604000000    -2.702000000
H    -1.915000000    -1.324000000    -1.932000000
C    -2.805000000    -0.360000000    -3.608000000
C    -3.676000000     0.666000000    -3.227000000
H    -4.272000000     0.516000000    -2.330000000
C    -1.995000000    -0.208000000    -4.725000000
H    -1.416000000    -1.057000000    -5.078000000
C    -1.986000000     0.967000000    -5.459000000
O    -1.259000000     1.095000000    -6.619000000
C    -2.804000000     2.040000000    -5.016000000
H    -2.938000000     2.952000000    -5.592000000
C    -3.548000000     1.872000000    -3.897000000
O    -4.285000000     2.988000000    -3.483000000
C    -5.298000000     2.947000000    -2.487000000
C    -5.116000000     3.485000000    -1.282000000
H    -4.178000000     3.792000000    -0.827000000
C    -6.461000000     2.387000000    -2.876000000
H    -6.704000000     2.100000000    -3.896000000
C    -7.546000000     2.384000000    -1.980000000
H    -8.515000000     1.972000000    -2.252000000
C    -7.396000000     2.813000000    -0.718000000
H    -8.250000000     2.796000000    -0.046000000
C    -6.209000000     3.406000000    -0.424000000
O    -6.055000000     3.852000000     0.869000000
C    -5.045000000     3.480000000     1.652000000
C    -4.398000000     4.456000000     2.411000000
H    -4.735000000     5.484000000     2.314000000
C    -3.395000000     4.050000000     3.246000000
O    -2.691000000     4.968000000     3.970000000
C    -1.455000000     4.776000000     4.611000000
C    -0.303000000     4.974000000     3.908000000
H    -0.432000000     5.082000000     2.834000000
C    -1.482000000     4.448000000     5.948000000
H    -2.401000000     4.245000000     6.493000000
C    -0.226000000     4.316000000     6.637000000
H    -0.203000000     4.050000000     7.691000000
C     1.009000000     4.454000000     5.884000000
H     2.025000000     4.262000000     6.220000000
C     0.986000000     4.722000000     4.529000000
O     2.128000000     4.812000000     3.797000000
C     2.799000000     3.647000000     3.344000000
C     4.062000000     3.842000000     2.926000000
H     4.331000000     4.891000000     2.837000000
C     4.890000000     2.756000000     2.704000000
O     6.190000000     2.824000000     2.234000000
C     6.617000000     2.314000000     1.031000000
C     5.866000000     2.465000000    -0.104000000
H     4.877000000     2.911000000    -0.041000000
C     7.709000000     1.448000000     0.996000000
H     8.421000000     1.459000000     1.818000000
C     8.107000000     0.863000000    -0.184000000
H     9.080000000     0.382000000    -0.240000000
C     7.297000000     0.962000000    -1.345000000
H     7.656000000     0.484000000    -2.253000000
C     6.225000000     1.847000000    -1.327000000
O     5.444000000     2.024000000    -2.437000000
C     4.733000000     0.986000000    -3.034000000
C     4.391000000     1.090000000    -4.336000000
H     4.750000000     1.919000000    -4.940000000
C     3.761000000     0.058000000    -4.970000000
O     3.380000000     0.212000000    -6.334000000
C     2.113000000    -0.087000000    -6.812000000
C     1.951000000    -1.352000000    -7.445000000
H     2.810000000    -1.998000000    -7.603000000
C     0.673000000    -1.739000000    -7.812000000
H     0.626000000    -2.732000000    -8.250000000
C    -0.450000000    -0.942000000    -7.514000000
H    -1.439000000    -1.234000000    -7.860000000
C    -0.225000000     0.276000000    -6.939000000
C     1.003000000     0.721000000    -6.592000000
H     1.165000000     1.701000000    -6.150000000
C     1.452000000     1.590000000    -1.679000000
H     2.436000000     1.871000000    -2.048000000
C     1.239000000     0.635000000    -0.661000000
H     2.164000000     0.184000000    -0.312000000
C    -0.045000000     0.266000000    -0.258000000
H    -0.136000000    -0.558000000     0.417000000
C    -1.096000000     1.029000000    -0.666000000
H    -2.089000000     0.713000000    -0.357000000
C    -0.871000000     2.032000000    -1.611000000
H    -1.742000000     2.602000000    -1.923000000
C     0.374000000     2.317000000    -2.164000000
C     0.508000000     3.272000000    -3.323000000
O    -0.469000000     3.968000000    -3.574000000
O     1.562000000     3.463000000    -3.926000000
O    -3.638000000     7.713000000    -1.588000000
H    -2.947000000     8.343000000    -1.384000000
H    -3.231000000     6.858000000    -1.449000000
O     5.980000000     4.221000000    -4.287000000
H     6.705000000     4.125000000    -4.904000000
H     6.053000000     3.459000000    -3.711000000
O    -0.105000000     4.267000000     0.259000000
H     0.020000000     3.331000000     0.099000000
H     0.781000000     4.608000000     0.386000000
O     1.579000000     6.884000000    -6.668000000
H     0.629000000     7.004000000    -6.663000000
H     1.833000000     6.947000000    -5.748000000
O    -0.587000000     9.661000000    -4.537000000
H    -0.867000000     8.754000000    -4.408000000
H    -1.396000000    10.137000000    -4.726000000
O     2.059000000     5.474000000    -0.414000000
H     2.550000000     5.162000000    -1.174000000
H     2.411000000     6.348000000    -0.244000000
O     2.755000000     6.990000000    -3.681000000
H     3.093000000     6.226000000    -3.213000000
H     3.508000000     7.577000000    -3.757000000
O    -1.197000000     7.534000000    -6.334000000
H    -2.095000000     7.230000000    -6.470000000
H    -0.780000000     6.833000000    -5.833000000
O    -0.917000000     6.945000000     0.965000000
H    -0.653000000     6.040000000     0.798000000
H    -1.378000000     7.210000000     0.170000000
O     3.626000000     4.665000000    -2.915000000
H     4.373000000     4.299000000    -3.389000000
H     2.915000000     4.045000000    -3.075000000
O     0.099000000     6.570000000    -4.174000000
H     0.954000000     6.786000000    -3.803000000
H    -0.021000000     5.642000000    -3.973000000
O    -4.232000000     5.677000000    -5.060000000
H    -4.300000000     4.991000000    -5.724000000
H    -3.761000000     5.265000000    -4.337000000
O     2.336000000     4.095000000    -6.433000000
H     2.136000000     3.926000000    -5.512000000
H     1.522000000     4.445000000    -6.795000000
O     4.122000000     3.629000000    -8.591000000
H     4.964000000     3.616000000    -8.135000000
H     3.470000000     3.640000000    -7.891000000
O     4.434000000     5.802000000    -5.939000000
H     3.706000000     5.262000000    -6.246000000
H     4.820000000     5.298000000    -5.223000000
O    -0.600000000     4.432000000    -6.299000000
H    -0.976000000     3.561000000    -6.429000000
H    -0.468000000     4.497000000    -5.353000000
O     6.188000000     5.456000000    -1.480000000
H     5.950000000     6.350000000    -1.235000000
H     5.526000000     5.200000000    -2.122000000
O     3.012000000     7.759000000     0.262000000
H     2.290000000     8.323000000     0.539000000
H     3.174000000     8.006000000    -0.648000000
O    -1.830000000     5.712000000    -1.481000000
H    -1.398000000     5.583000000    -2.325000000
H    -1.306000000     5.203000000    -0.863000000
