215
-1435.41907
C    -3.291000000     2.712000000     3.518000000
H    -2.812000000     2.330000000     4.416000000
C    -3.866000000     1.835000000     2.623000000
C    -4.631000000     2.344000000     1.606000000
H    -5.236000000     1.716000000     0.957000000
C    -3.576000000     0.362000000     2.680000000
O    -3.110000000     0.009000000     4.070000000
H    -2.701000000     0.313000000     2.015000000
O    -4.757000000    -0.442000000     2.313000000
C    -4.326000000    -1.466000000     1.490000000
C    -4.283000000    -1.235000000     0.108000000
H    -4.710000000    -0.299000000    -0.240000000
C    -3.882000000    -2.183000000    -0.809000000
O    -3.914000000    -1.834000000    -2.163000000
C    -3.338000000    -3.395000000    -0.363000000
C    -2.862000000    -4.495000000    -1.347000000
H    -3.064000000    -5.461000000    -0.879000000
C    -1.435000000    -4.266000000    -1.763000000
C    -0.426000000    -4.917000000    -1.073000000
H    -0.765000000    -5.625000000    -0.321000000
H    -3.574000000    -4.575000000    -2.170000000
C    -3.259000000    -3.615000000     1.042000000
H    -2.688000000    -4.478000000     1.374000000
C    -3.675000000    -2.599000000     1.959000000
C    -3.490000000    -2.822000000     3.425000000
H    -3.609000000    -3.893000000     3.600000000
H    -4.248000000    -2.305000000     4.018000000
C    -2.177000000    -2.230000000     3.933000000
C    -1.059000000    -3.026000000     3.965000000
H    -1.227000000    -4.086000000     3.793000000
C    -2.018000000    -0.878000000     4.186000000
C    -0.763000000    -0.312000000     4.417000000
H    -0.737000000     0.773000000     4.480000000
C     0.330000000    -1.105000000     4.464000000
O     1.610000000    -0.507000000     4.586000000
C     2.346000000    -0.273000000     3.422000000
C     2.968000000     1.081000000     3.297000000
C     4.286000000     1.322000000     2.891000000
H     4.955000000     0.490000000     2.688000000
C     2.244000000     2.151000000     3.621000000
H     1.220000000     2.113000000     3.984000000
O     3.387000000    -1.299000000     3.259000000
H     1.645000000    -0.385000000     2.581000000
C     0.200000000    -2.465000000     4.215000000
C     1.445000000    -3.362000000     4.113000000
H     1.076000000    -4.369000000     4.317000000
H     2.225000000    -3.109000000     4.834000000
C     2.198000000    -3.323000000     2.749000000
C     1.955000000    -4.305000000     1.798000000
H     1.304000000    -5.154000000     1.986000000
C     3.129000000    -2.374000000     2.387000000
C     3.770000000    -2.337000000     1.164000000
H     4.600000000    -1.641000000     1.069000000
C     3.393000000    -3.226000000     0.187000000
O     3.973000000    -3.129000000    -1.070000000
C     3.067000000    -2.465000000    -1.984000000
C     3.677000000    -1.286000000    -2.718000000
C     4.591000000    -0.451000000    -2.024000000
H     4.933000000    -0.752000000    -1.037000000
C     3.265000000    -0.935000000    -4.010000000
H     2.562000000    -1.608000000    -4.494000000
O     2.469000000    -3.376000000    -2.818000000
H     2.311000000    -2.050000000    -1.301000000
C     2.511000000    -4.266000000     0.512000000
C     2.052000000    -5.265000000    -0.532000000
H     1.756000000    -6.134000000     0.060000000
H     2.836000000    -5.632000000    -1.198000000
C     0.963000000    -4.700000000    -1.377000000
C     1.217000000    -3.875000000    -2.470000000
C     0.182000000    -3.261000000    -3.194000000
H     0.491000000    -2.602000000    -4.002000000
C    -1.158000000    -3.484000000    -2.917000000
O    -2.080000000    -2.584000000    -3.532000000
C    -2.645000000    -1.402000000    -2.761000000
H    -2.045000000    -1.087000000    -1.895000000
C    -2.807000000    -0.226000000    -3.624000000
C    -3.669000000     0.835000000    -3.348000000
H    -4.312000000     0.690000000    -2.484000000
C    -1.871000000     0.019000000    -4.646000000
H    -0.985000000    -0.610000000    -4.673000000
C    -2.017000000     1.034000000    -5.497000000
O    -1.169000000     1.144000000    -6.597000000
C    -3.099000000     1.927000000    -5.335000000
H    -3.326000000     2.743000000    -6.016000000
C    -3.947000000     1.858000000    -4.232000000
O    -5.048000000     2.635000000    -4.083000000
C    -5.741000000     2.804000000    -2.903000000
C    -5.090000000     3.414000000    -1.799000000
H    -4.089000000     3.823000000    -1.912000000
C    -7.133000000     2.509000000    -2.870000000
H    -7.647000000     2.109000000    -3.740000000
C    -7.824000000     2.717000000    -1.754000000
H    -8.906000000     2.661000000    -1.842000000
C    -7.237000000     3.315000000    -0.658000000
H    -7.871000000     3.607000000     0.175000000
C    -5.884000000     3.675000000    -0.669000000
O    -5.390000000     4.305000000     0.382000000
C    -4.691000000     3.715000000     1.456000000
C    -4.044000000     4.550000000     2.322000000
H    -4.116000000     5.631000000     2.233000000
C    -3.320000000     4.112000000     3.412000000
O    -2.696000000     4.992000000     4.324000000
C    -1.479000000     4.572000000     4.879000000
C    -0.381000000     4.716000000     4.016000000
H    -0.502000000     5.038000000     2.985000000
C    -1.346000000     4.239000000     6.316000000
H    -2.186000000     4.278000000     7.005000000
C    -0.034000000     3.992000000     6.788000000
H     0.129000000     3.875000000     7.857000000
C     1.023000000     4.114000000     5.904000000
H     2.054000000     4.019000000     6.233000000
C     0.884000000     4.463000000     4.552000000
O     2.067000000     4.496000000     3.919000000
C     2.796000000     3.436000000     3.507000000
C     4.108000000     3.652000000     3.131000000
H     4.487000000     4.652000000     2.942000000
C     4.884000000     2.626000000     2.805000000
O     6.154000000     2.863000000     2.237000000
C     6.687000000     2.043000000     1.308000000
C     6.151000000     1.915000000     0.088000000
H     5.222000000     2.462000000    -0.047000000
C     7.819000000     1.312000000     1.640000000
H     8.273000000     1.301000000     2.627000000
C     8.476000000     0.610000000     0.649000000
H     9.442000000     0.196000000     0.927000000
C     7.990000000     0.599000000    -0.655000000
H     8.634000000     0.064000000    -1.348000000
C     6.717000000     1.104000000    -0.902000000
O     6.317000000     1.272000000    -2.175000000
C     5.242000000     0.563000000    -2.689000000
C     4.794000000     0.924000000    -3.961000000
H     5.241000000     1.782000000    -4.456000000
C     3.808000000     0.195000000    -4.652000000
O     3.439000000     0.559000000    -5.934000000
C     2.238000000     0.137000000    -6.473000000
C     2.310000000    -0.555000000    -7.698000000
H     3.299000000    -0.895000000    -7.994000000
C     1.167000000    -0.804000000    -8.451000000
H     1.202000000    -1.227000000    -9.451000000
C    -0.048000000    -0.296000000    -8.003000000
H    -0.935000000    -0.260000000    -8.630000000
C    -0.069000000     0.430000000    -6.825000000
C     1.053000000     0.664000000    -6.068000000
H     1.039000000     1.301000000    -5.187000000
C     1.170000000     1.600000000    -1.854000000
H     2.118000000     1.814000000    -2.340000000
C     1.053000000     0.559000000    -0.965000000
H     1.887000000     0.009000000    -0.537000000
C    -0.219000000     0.231000000    -0.456000000
H    -0.392000000    -0.550000000     0.315000000
C    -1.337000000     1.017000000    -0.773000000
H    -2.271000000     0.764000000    -0.278000000
C    -1.187000000     2.052000000    -1.711000000
H    -1.972000000     2.793000000    -1.834000000
C     0.073000000     2.301000000    -2.253000000
C     0.280000000     3.328000000    -3.323000000
O    -0.691000000     3.951000000    -3.716000000
O     1.344000000     3.507000000    -3.903000000
O    -1.678000000     4.780000000    -9.788000000
H    -1.875000000     4.461000000    -8.907000000
H    -1.008000000     4.181000000   -10.116000000
O    -2.130000000     7.837000000    -1.223000000
H    -1.390000000     8.355000000    -1.541000000
H    -1.800000000     6.939000000    -1.196000000
O     5.548000000     4.855000000    -5.154000000
H     5.979000000     4.301000000    -5.805000000
H     6.001000000     4.657000000    -4.334000000
O     0.627000000     3.867000000     0.487000000
H     0.549000000     2.922000000     0.354000000
H     1.550000000     4.057000000     0.316000000
O    -1.831000000     9.149000000    -4.613000000
H    -1.746000000     8.442000000    -5.253000000
H    -1.075000000     9.043000000    -4.036000000
O     3.229000000     4.475000000    -0.306000000
H     3.427000000     4.333000000    -1.231000000
H     3.920000000     5.062000000     0.000000000
O     2.540000000     7.839000000    -3.171000000
H     2.688000000     8.089000000    -2.258000000
H     3.417000000     7.787000000    -3.550000000
O    -4.383000000     6.532000000    -7.082000000
H    -3.789000000     6.425000000    -6.338000000
H    -4.862000000     5.705000000    -7.127000000
O    -0.597000000     7.592000000    -6.471000000
H    -0.268000000     7.198000000    -5.663000000
H     0.068000000     7.384000000    -7.128000000
O     1.133000000     6.517000000     0.525000000
H     0.474000000     5.860000000     0.302000000
H     1.761000000     6.482000000    -0.197000000
O     3.716000000     4.373000000    -3.106000000
H     4.280000000     4.482000000    -3.871000000
H     2.874000000     4.094000000    -3.467000000
O     0.078000000     6.700000000    -3.947000000
H     0.949000000     6.944000000    -3.634000000
H    -0.040000000     5.798000000    -3.648000000
O    -2.713000000     6.022000000    -4.800000000
H    -2.437000000     5.202000000    -4.391000000
H    -2.338000000     6.705000000    -4.244000000
O     1.267000000     4.635000000    -6.337000000
H     1.497000000     4.314000000    -5.465000000
H     0.415000000     4.241000000    -6.521000000
O     1.501000000     7.293000000    -8.231000000
H     2.202000000     7.521000000    -8.842000000
H     1.945000000     6.832000000    -7.519000000
O     3.457000000     6.410000000    -6.540000000
H     2.997000000     5.584000000    -6.685000000
H     4.167000000     6.188000000    -5.938000000
O    -1.603000000     4.350000000    -6.920000000
H    -1.707000000     3.763000000    -6.172000000
H    -1.896000000     5.203000000    -6.598000000
O    -2.944000000     1.624000000    -9.305000000
H    -2.751000000     1.646000000    -8.368000000
H    -2.118000000     1.864000000    -9.725000000
O    -1.360000000     5.362000000    -1.174000000
H    -1.098000000     4.761000000    -1.871000000
H    -1.098000000     4.921000000    -0.366000000
