215
-1477.42627
C    -3.386000000     0.399000000     4.027000000
H    -2.697000000    -0.272000000     4.533000000
C    -3.908000000     0.000000000     2.819000000
C    -4.897000000     0.819000000     2.154000000
H    -5.291000000     0.563000000     1.174000000
C    -3.456000000    -1.288000000     2.109000000
O    -3.099000000    -2.315000000     3.028000000
H    -2.554000000    -1.178000000     1.489000000
O    -4.612000000    -1.771000000     1.314000000
C    -4.167000000    -2.262000000     0.069000000
C    -4.207000000    -1.397000000    -1.049000000
H    -4.588000000    -0.382000000    -0.972000000
C    -3.599000000    -1.781000000    -2.220000000
O    -3.555000000    -0.823000000    -3.219000000
C    -3.019000000    -3.004000000    -2.439000000
C    -2.410000000    -3.308000000    -3.734000000
H    -2.271000000    -4.362000000    -3.982000000
C    -0.961000000    -2.733000000    -3.860000000
C     0.126000000    -3.553000000    -3.554000000
H    -0.051000000    -4.596000000    -3.303000000
H    -2.990000000    -3.043000000    -4.621000000
C    -3.006000000    -3.876000000    -1.360000000
H    -2.548000000    -4.849000000    -1.523000000
C    -3.479000000    -3.480000000    -0.076000000
C    -3.162000000    -4.395000000     1.087000000
H    -3.214000000    -5.441000000     0.781000000
H    -4.078000000    -4.348000000     1.680000000
C    -1.917000000    -4.055000000     1.894000000
C    -0.666000000    -4.648000000     1.654000000
H    -0.527000000    -5.364000000     0.849000000
C    -1.960000000    -3.064000000     2.898000000
C    -0.814000000    -2.565000000     3.499000000
H    -0.844000000    -1.688000000     4.140000000
C     0.426000000    -3.225000000     3.262000000
O     1.533000000    -2.725000000     3.867000000
C     2.334000000    -1.805000000     3.084000000
C     2.782000000    -0.579000000     3.921000000
C     3.869000000     0.105000000     3.427000000
H     4.404000000    -0.325000000     2.584000000
C     1.967000000    -0.120000000     4.945000000
H     1.126000000    -0.699000000     5.319000000
O     3.466000000    -2.469000000     2.434000000
H     1.758000000    -1.258000000     2.323000000
C     0.498000000    -4.265000000     2.369000000
C     1.799000000    -4.905000000     1.939000000
H     1.717000000    -5.943000000     1.608000000
H     2.429000000    -4.977000000     2.828000000
C     2.512000000    -4.121000000     0.855000000
C     2.287000000    -4.425000000    -0.499000000
H     1.723000000    -5.287000000    -0.843000000
C     3.375000000    -3.035000000     1.178000000
C     3.966000000    -2.387000000     0.154000000
H     4.582000000    -1.504000000     0.301000000
C     3.728000000    -2.735000000    -1.177000000
O     4.318000000    -1.874000000    -2.111000000
C     3.467000000    -0.851000000    -2.762000000
C     4.124000000     0.490000000    -2.733000000
C     4.992000000     0.904000000    -1.721000000
H     5.374000000     0.152000000    -1.034000000
C     3.436000000     1.455000000    -3.428000000
H     2.663000000     1.215000000    -4.154000000
O     2.962000000    -1.189000000    -4.056000000
H     2.615000000    -0.695000000    -2.084000000
C     2.898000000    -3.762000000    -1.521000000
C     2.632000000    -3.952000000    -3.006000000
H     2.428000000    -5.012000000    -3.167000000
H     3.567000000    -3.647000000    -3.481000000
C     1.462000000    -3.081000000    -3.547000000
C     1.693000000    -1.801000000    -4.071000000
C     0.604000000    -0.958000000    -4.512000000
H     0.894000000     0.025000000    -4.873000000
C    -0.752000000    -1.431000000    -4.356000000
O    -1.740000000    -0.563000000    -4.577000000
C    -2.384000000    -0.015000000    -3.472000000
H    -1.680000000    -0.096000000    -2.631000000
C    -2.688000000     1.513000000    -3.663000000
C    -3.769000000     2.070000000    -3.038000000
H    -4.405000000     1.532000000    -2.339000000
C    -1.864000000     2.298000000    -4.467000000
H    -1.013000000     1.886000000    -5.003000000
C    -2.064000000     3.674000000    -4.642000000
O    -1.169000000     4.543000000    -5.299000000
C    -3.113000000     4.245000000    -3.965000000
H    -3.282000000     5.302000000    -4.155000000
C    -4.020000000     3.421000000    -3.230000000
O    -5.077000000     4.026000000    -2.677000000
C    -5.867000000     3.387000000    -1.728000000
C    -5.539000000     3.469000000    -0.392000000
H    -4.644000000     4.016000000    -0.106000000
C    -7.085000000     2.876000000    -2.057000000
H    -7.443000000     2.852000000    -3.083000000
C    -7.971000000     2.285000000    -1.124000000
H    -8.926000000     1.828000000    -1.370000000
C    -7.638000000     2.389000000     0.235000000
H    -8.324000000     2.155000000     1.045000000
C    -6.360000000     2.851000000     0.535000000
O    -5.977000000     2.985000000     1.857000000
C    -5.189000000     2.082000000     2.646000000
C    -4.614000000     2.477000000     3.880000000
H    -4.923000000     3.456000000     4.237000000
C    -3.717000000     1.659000000     4.549000000
O    -3.158000000     2.064000000     5.719000000
C    -2.003000000     1.586000000     6.387000000
C    -0.705000000     1.936000000     6.047000000
H    -0.447000000     2.540000000     5.181000000
C    -2.249000000     0.736000000     7.478000000
H    -3.236000000     0.395000000     7.782000000
C    -1.177000000     0.323000000     8.269000000
H    -1.310000000    -0.290000000     9.157000000
C     0.110000000     0.677000000     7.985000000
H     0.923000000     0.238000000     8.556000000
C     0.320000000     1.492000000     6.849000000
O     1.588000000     1.752000000     6.555000000
C     2.343000000     1.195000000     5.502000000
C     3.524000000     1.863000000     5.149000000
H     3.887000000     2.759000000     5.646000000
C     4.230000000     1.313000000     4.108000000
O     5.296000000     2.136000000     3.729000000
C     6.071000000     1.822000000     2.669000000
C     5.823000000     2.290000000     1.361000000
H     4.946000000     2.923000000     1.254000000
C     7.227000000     1.172000000     2.977000000
H     7.439000000     0.888000000     4.004000000
C     8.109000000     0.900000000     2.017000000
H     8.963000000     0.247000000     2.180000000
C     7.904000000     1.296000000     0.656000000
H     8.638000000     1.070000000    -0.112000000
C     6.731000000     1.974000000     0.373000000
O     6.592000000     2.530000000    -0.909000000
C     5.504000000     2.172000000    -1.658000000
C     4.924000000     3.111000000    -2.450000000
H     5.241000000     4.129000000    -2.240000000
C     3.891000000     2.758000000    -3.364000000
O     3.251000000     3.708000000    -3.988000000
C     2.266000000     3.558000000    -4.974000000
C     2.525000000     2.900000000    -6.179000000
H     3.503000000     2.441000000    -6.301000000
C     1.498000000     2.907000000    -7.161000000
H     1.760000000     2.543000000    -8.151000000
C     0.233000000     3.408000000    -6.821000000
H    -0.584000000     3.462000000    -7.536000000
C     0.113000000     4.091000000    -5.660000000
C     1.125000000     4.266000000    -4.761000000
H     1.011000000     4.822000000    -3.834000000
C     0.644000000     2.567000000    -0.863000000
H     1.452000000     3.209000000    -1.204000000
C     0.763000000     1.195000000    -0.708000000
H     1.691000000     0.720000000    -1.015000000
C    -0.296000000     0.391000000    -0.300000000
H    -0.295000000    -0.734000000    -0.316000000
C    -1.580000000     0.989000000    -0.183000000
H    -2.456000000     0.348000000    -0.128000000
C    -1.667000000     2.392000000    -0.276000000
H    -2.623000000     2.901000000    -0.179000000
C    -0.620000000     3.173000000    -0.649000000
C    -0.737000000     4.694000000    -0.842000000
O    -1.837000000     5.231000000    -0.853000000
O     0.228000000     5.430000000    -1.099000000
O    -2.830000000     8.605000000    -2.319000000
H    -3.550000000     8.169000000    -2.774000000
H    -2.039000000     8.252000000    -2.728000000
O    -2.419000000     7.332000000     4.330000000
H    -2.805000000     7.533000000     5.182000000
H    -3.023000000     7.718000000     3.696000000
O     3.402000000     8.926000000    -1.140000000
H     4.196000000     8.422000000    -0.964000000
H     2.908000000     8.889000000    -0.320000000
O    -1.074000000     3.223000000     2.477000000
H    -1.901000000     3.684000000     2.334000000
H    -0.965000000     2.679000000     1.697000000
O    -6.995000000     6.850000000     0.066000000
H    -6.068000000     6.641000000    -0.049000000
H    -7.343000000     6.119000000     0.578000000
O    -0.782000000     7.279000000    -3.354000000
H    -1.046000000     6.577000000    -2.759000000
H     0.175000000     7.258000000    -3.340000000
O     0.894000000     5.419000000     2.558000000
H     0.337000000     4.726000000     2.204000000
H     0.497000000     5.638000000     3.401000000
O    -3.155000000     4.834000000     1.916000000
H    -2.935000000     5.165000000     1.045000000
H    -3.575000000     5.575000000     2.355000000
O     1.741000000     8.142000000     1.232000000
H     1.039000000     8.231000000     0.587000000
H     1.608000000     7.275000000     1.613000000
O     1.915000000     6.931000000    -2.605000000
H     1.499000000     6.251000000    -2.075000000
H     2.638000000     7.248000000    -2.063000000
O    -1.034000000     5.100000000     4.856000000
H    -1.559000000     5.868000000     4.628000000
H    -1.247000000     4.456000000     4.181000000
O     2.582000000     4.779000000     0.107000000
H     1.694000000     4.964000000    -0.200000000
H     2.481000000     4.614000000     1.045000000
O     5.000000000     6.193000000    -0.507000000
H     4.446000000     5.454000000    -0.758000000
H     4.762000000     6.373000000     0.403000000
O    -0.064000000     7.987000000    -0.672000000
H     0.114000000     8.454000000    -1.489000000
H    -0.073000000     7.063000000    -0.922000000
O    -0.603000000     7.430000000    -6.398000000
H    -1.307000000     7.897000000    -5.948000000
H    -0.813000000     6.504000000    -6.276000000
O    -4.781000000     7.525000000     2.227000000
H    -4.976000000     8.454000000     2.351000000
H    -4.813000000     7.399000000     1.279000000
O    -5.200000000     7.497000000    -3.497000000
H    -5.872000000     6.885000000    -3.798000000
H    -5.370000000     8.300000000    -3.990000000
O    -4.271000000     6.654000000    -0.449000000
H    -3.427000000     6.207000000    -0.506000000
H    -4.234000000     7.325000000    -1.131000000
O    -1.816000000    10.086000000     0.642000000
H    -2.612000000    10.386000000     0.203000000
H    -1.479000000     9.390000000     0.079000000
