215
-1461.19136
C    -4.212000000    -0.927000000     3.226000000
H    -3.619000000    -1.635000000     3.800000000
C    -4.538000000    -1.049000000     1.895000000
C    -5.384000000    -0.035000000     1.383000000
H    -5.717000000     0.031000000     0.350000000
C    -3.873000000    -2.193000000     1.071000000
O    -3.613000000    -3.499000000     1.766000000
H    -2.949000000    -1.822000000     0.603000000
O    -4.699000000    -2.381000000    -0.031000000
C    -4.059000000    -2.353000000    -1.257000000
C    -4.046000000    -1.178000000    -2.035000000
H    -4.680000000    -0.348000000    -1.732000000
C    -3.245000000    -1.101000000    -3.157000000
O    -3.041000000     0.189000000    -3.663000000
C    -2.398000000    -2.161000000    -3.550000000
C    -1.658000000    -2.193000000    -4.904000000
H    -1.655000000    -3.185000000    -5.362000000
C    -0.176000000    -1.760000000    -4.694000000
C     0.830000000    -2.692000000    -4.430000000
H     0.625000000    -3.757000000    -4.357000000
H    -2.084000000    -1.518000000    -5.650000000
C    -2.535000000    -3.337000000    -2.847000000
H    -2.059000000    -4.270000000    -3.138000000
C    -3.297000000    -3.432000000    -1.666000000
C    -3.219000000    -4.722000000    -0.805000000
H    -3.211000000    -5.566000000    -1.498000000
H    -4.163000000    -4.811000000    -0.263000000
C    -2.159000000    -4.738000000     0.266000000
C    -0.937000000    -5.394000000     0.045000000
H    -0.705000000    -5.841000000    -0.918000000
C    -2.375000000    -4.112000000     1.521000000
C    -1.380000000    -3.899000000     2.449000000
H    -1.534000000    -3.388000000     3.395000000
C    -0.129000000    -4.429000000     2.137000000
O     0.852000000    -4.225000000     3.008000000
C     1.693000000    -3.095000000     2.694000000
C     1.755000000    -2.120000000     3.922000000
C     2.812000000    -1.218000000     3.873000000
H     3.478000000    -1.208000000     3.014000000
C     0.851000000    -2.081000000     5.009000000
H    -0.097000000    -2.611000000     5.003000000
O     2.994000000    -3.595000000     2.200000000
H     1.219000000    -2.560000000     1.857000000
C     0.108000000    -5.200000000     0.994000000
C     1.575000000    -5.579000000     0.753000000
H     1.719000000    -6.447000000     0.106000000
H     2.058000000    -5.864000000     1.690000000
C     2.434000000    -4.508000000     0.074000000
C     2.392000000    -4.408000000    -1.312000000
H     1.866000000    -5.165000000    -1.888000000
C     3.163000000    -3.598000000     0.837000000
C     3.846000000    -2.552000000     0.283000000
H     4.326000000    -1.818000000     0.925000000
C     3.773000000    -2.379000000    -1.077000000
O     4.382000000    -1.265000000    -1.579000000
C     3.583000000    -0.216000000    -2.141000000
C     4.234000000     1.189000000    -1.714000000
C     4.780000000     1.358000000    -0.468000000
H     4.849000000     0.586000000     0.294000000
C     4.160000000     2.258000000    -2.625000000
H     3.590000000     2.157000000    -3.545000000
O     3.565000000    -0.429000000    -3.517000000
H     2.547000000    -0.227000000    -1.769000000
C     3.118000000    -3.327000000    -1.859000000
C     3.133000000    -3.242000000    -3.392000000
H     2.922000000    -4.243000000    -3.772000000
H     4.113000000    -3.026000000    -3.823000000
C     2.053000000    -2.284000000    -3.933000000
C     2.336000000    -0.846000000    -3.923000000
C     1.369000000     0.053000000    -4.311000000
H     1.588000000     1.116000000    -4.252000000
C     0.070000000    -0.413000000    -4.623000000
O    -0.924000000     0.620000000    -4.687000000
C    -1.691000000     0.831000000    -3.480000000
H    -1.197000000     0.393000000    -2.600000000
C    -1.808000000     2.330000000    -3.212000000
C    -2.788000000     2.792000000    -2.253000000
H    -3.437000000     2.083000000    -1.746000000
C    -0.893000000     3.207000000    -3.792000000
H    -0.073000000     2.857000000    -4.414000000
C    -0.956000000     4.510000000    -3.356000000
O    -0.105000000     5.551000000    -3.836000000
C    -1.923000000     4.927000000    -2.351000000
H    -1.936000000     5.960000000    -2.011000000
C    -2.897000000     4.102000000    -1.857000000
O    -3.654000000     4.564000000    -0.868000000
C    -4.892000000     4.057000000    -0.655000000
C    -5.169000000     3.267000000     0.392000000
H    -4.318000000     3.044000000     1.029000000
C    -5.907000000     4.449000000    -1.576000000
H    -5.575000000     5.063000000    -2.409000000
C    -7.226000000     4.033000000    -1.383000000
H    -8.007000000     4.219000000    -2.116000000
C    -7.470000000     3.118000000    -0.366000000
H    -8.451000000     2.672000000    -0.220000000
C    -6.501000000     2.765000000     0.580000000
O    -6.792000000     1.944000000     1.678000000
C    -5.863000000     1.050000000     2.189000000
C    -5.434000000     1.137000000     3.550000000
H    -5.744000000     1.968000000     4.179000000
C    -4.621000000     0.114000000     4.069000000
O    -4.421000000     0.133000000     5.426000000
C    -3.230000000     0.475000000     6.026000000
C    -2.262000000    -0.507000000     6.165000000
H    -2.565000000    -1.542000000     6.024000000
C    -3.033000000     1.762000000     6.470000000
H    -3.828000000     2.501000000     6.530000000
C    -1.757000000     2.143000000     6.842000000
H    -1.513000000     3.202000000     6.867000000
C    -0.729000000     1.215000000     6.968000000
H     0.278000000     1.525000000     7.234000000
C    -0.998000000    -0.125000000     6.732000000
O     0.006000000    -0.990000000     7.007000000
C     1.008000000    -1.102000000     6.008000000
C     2.167000000    -0.322000000     6.026000000
H     2.371000000     0.205000000     6.954000000
C     3.102000000    -0.379000000     5.000000000
O     4.258000000     0.395000000     5.070000000
C     5.192000000     0.598000000     4.102000000
C     5.015000000     1.619000000     3.192000000
H     4.125000000     2.236000000     3.289000000
C     6.317000000    -0.243000000     3.962000000
H     6.413000000    -1.097000000     4.628000000
C     7.210000000    -0.117000000     2.871000000
H     8.127000000    -0.683000000     2.725000000
C     7.022000000     0.963000000     2.047000000
H     7.743000000     1.245000000     1.284000000
C     5.966000000     1.861000000     2.229000000
O     5.690000000     2.830000000     1.216000000
C     5.273000000     2.558000000    -0.099000000
C     5.207000000     3.721000000    -0.996000000
H     5.599000000     4.671000000    -0.641000000
C     4.722000000     3.491000000    -2.222000000
O     4.665000000     4.621000000    -3.020000000
C     3.600000000     4.872000000    -3.800000000
C     3.822000000     4.731000000    -5.119000000
H     4.846000000     4.520000000    -5.416000000
C     2.776000000     4.948000000    -6.075000000
H     3.048000000     4.807000000    -7.118000000
C     1.481000000     5.248000000    -5.616000000
H     0.683000000     5.433000000    -6.331000000
C     1.183000000     5.246000000    -4.230000000
C     2.261000000     5.067000000    -3.323000000
H     2.038000000     5.162000000    -2.263000000
C     1.051000000     1.231000000     1.277000000
H     1.975000000     1.531000000     1.765000000
C     1.087000000     0.067000000     0.501000000
H     2.011000000    -0.454000000     0.261000000
C    -0.092000000    -0.340000000    -0.139000000
H    -0.059000000    -1.232000000    -0.790000000
C    -1.261000000     0.374000000     0.017000000
H    -2.130000000    -0.064000000    -0.468000000
C    -1.296000000     1.503000000     0.802000000
H    -2.223000000     2.070000000     0.819000000
C    -0.161000000     1.929000000     1.483000000
C    -0.147000000     3.268000000     2.191000000
O    -1.140000000     3.955000000     2.349000000
O     0.939000000     3.618000000     2.727000000
O     0.980000000     4.550000000     7.833000000
H     1.220000000     4.118000000     7.014000000
H     1.587000000     5.287000000     7.903000000
O    -5.065000000     7.138000000     0.914000000
H    -4.423000000     6.452000000     0.731000000
H    -5.307000000     7.475000000     0.051000000
O     0.859000000     6.126000000     3.937000000
H     0.376000000     5.393000000     3.554000000
H     1.734000000     5.777000000     4.101000000
O     1.311000000     2.786000000     5.345000000
H     0.884000000     1.930000000     5.308000000
H     1.181000000     3.157000000     4.472000000
O    -1.544000000     5.836000000     8.195000000
H    -1.765000000     6.023000000     7.282000000
H    -0.767000000     5.281000000     8.144000000
O    -4.280000000     7.213000000     3.517000000
H    -4.291000000     7.321000000     2.566000000
H    -3.578000000     6.583000000     3.678000000
O     5.541000000     5.593000000     2.619000000
H     4.785000000     5.070000000     2.353000000
H     6.297000000     5.096000000     2.306000000
O    -1.017000000     6.630000000     5.706000000
H    -1.530000000     5.982000000     5.224000000
H    -0.244000000     6.777000000     5.161000000
O    -2.618000000     4.970000000     4.334000000
H    -3.433000000     4.609000000     4.684000000
H    -2.355000000     4.351000000     3.653000000
O     3.879000000     7.217000000    -0.883000000
H     4.474000000     7.566000000    -0.220000000
H     3.209000000     6.751000000    -0.382000000
O     3.569000000     6.509000000     4.208000000
H     4.041000000     6.941000000     4.919000000
H     4.256000000     6.126000000     3.662000000
O     0.054000000     8.680000000     3.959000000
H     0.493000000     7.842000000     3.812000000
H    -0.520000000     8.785000000     3.201000000
O    -5.027000000     4.527000000     5.104000000
H    -5.776000000     4.912000000     4.648000000
H    -5.080000000     4.881000000     5.992000000
O     3.891000000     2.927000000     6.476000000
H     3.101000000     3.034000000     5.947000000
H     4.243000000     2.077000000     6.210000000
O     3.067000000     7.826000000     1.828000000
H     3.437000000     7.391000000     2.597000000
H     2.274000000     7.329000000     1.630000000
O    -0.130000000     7.779000000    -1.020000000
H    -0.086000000     8.512000000    -1.634000000
H    -0.644000000     8.113000000    -0.285000000
O    -2.496000000     6.174000000     1.084000000
H    -2.010000000     5.991000000     0.279000000
H    -2.131000000     5.567000000     1.727000000
O     3.264000000     4.530000000     1.802000000
H     2.811000000     4.910000000     1.049000000
H     2.572000000     4.110000000     2.312000000
O     1.402000000     5.994000000     0.164000000
H     0.859000000     6.540000000    -0.404000000
H     0.777000000     5.448000000     0.640000000
