215
-1466.76111
C    -3.084000000    -1.284000000     4.194000000
H    -2.471000000    -2.136000000     4.476000000
C    -3.462000000    -1.194000000     2.879000000
C    -4.262000000    -0.128000000     2.457000000
H    -4.563000000    -0.106000000     1.412000000
C    -2.933000000    -2.226000000     1.827000000
O    -2.651000000    -3.502000000     2.450000000
H    -2.057000000    -1.738000000     1.375000000
O    -3.945000000    -2.418000000     0.782000000
C    -3.486000000    -2.503000000    -0.510000000
C    -3.678000000    -1.396000000    -1.341000000
H    -4.045000000    -0.459000000    -0.930000000
C    -3.346000000    -1.453000000    -2.715000000
O    -3.426000000    -0.301000000    -3.398000000
C    -2.664000000    -2.631000000    -3.200000000
C    -2.089000000    -2.573000000    -4.582000000
H    -1.969000000    -3.562000000    -5.030000000
C    -0.762000000    -1.808000000    -4.646000000
C     0.384000000    -2.507000000    -4.524000000
H     0.365000000    -3.594000000    -4.520000000
H    -2.842000000    -2.079000000    -5.200000000
C    -2.596000000    -3.760000000    -2.379000000
H    -2.204000000    -4.672000000    -2.822000000
C    -3.047000000    -3.734000000    -1.030000000
C    -2.851000000    -4.951000000    -0.160000000
H    -2.748000000    -5.773000000    -0.872000000
H    -3.646000000    -5.166000000     0.558000000
C    -1.552000000    -4.702000000     0.616000000
C    -0.369000000    -5.109000000     0.036000000
H    -0.459000000    -5.575000000    -0.942000000
C    -1.605000000    -4.298000000     1.948000000
C    -0.480000000    -4.230000000     2.732000000
H    -0.455000000    -3.849000000     3.750000000
C     0.718000000    -4.569000000     2.146000000
O     1.821000000    -4.018000000     2.688000000
C     2.290000000    -2.789000000     2.072000000
C     2.446000000    -1.656000000     3.060000000
C     2.972000000    -0.459000000     2.631000000
H     3.259000000    -0.341000000     1.590000000
C     1.951000000    -1.793000000     4.372000000
H     1.534000000    -2.709000000     4.783000000
O     3.537000000    -3.107000000     1.453000000
H     1.433000000    -2.514000000     1.440000000
C     0.801000000    -5.005000000     0.765000000
C     2.100000000    -5.400000000     0.070000000
H     2.061000000    -6.292000000    -0.559000000
H     2.803000000    -5.816000000     0.795000000
C     2.756000000    -4.140000000    -0.584000000
C     2.444000000    -4.001000000    -1.913000000
H     1.796000000    -4.732000000    -2.390000000
C     3.424000000    -3.110000000     0.083000000
C     3.951000000    -2.043000000    -0.640000000
H     4.517000000    -1.278000000    -0.115000000
C     3.854000000    -1.997000000    -2.024000000
O     4.355000000    -0.877000000    -2.671000000
C     3.406000000     0.211000000    -2.964000000
C     3.950000000     1.638000000    -2.675000000
C     4.919000000     1.873000000    -1.696000000
H     5.439000000     1.102000000    -1.133000000
C     3.428000000     2.749000000    -3.348000000
H     2.626000000     2.692000000    -4.080000000
O     2.981000000     0.067000000    -4.324000000
H     2.494000000     0.072000000    -2.366000000
C     3.047000000    -2.957000000    -2.641000000
C     2.868000000    -2.814000000    -4.149000000
H     2.823000000    -3.847000000    -4.500000000
H     3.727000000    -2.316000000    -4.605000000
C     1.691000000    -1.947000000    -4.460000000
C     1.763000000    -0.552000000    -4.465000000
C     0.634000000     0.209000000    -4.617000000
H     0.667000000     1.294000000    -4.567000000
C    -0.601000000    -0.406000000    -4.727000000
O    -1.669000000     0.399000000    -4.668000000
C    -2.317000000     0.622000000    -3.396000000
H    -1.599000000     0.460000000    -2.578000000
C    -2.761000000     2.087000000    -3.144000000
C    -3.953000000     2.452000000    -2.521000000
H    -4.656000000     1.651000000    -2.307000000
C    -1.856000000     3.068000000    -3.384000000
H    -0.836000000     2.914000000    -3.725000000
C    -2.112000000     4.448000000    -3.051000000
O    -1.254000000     5.429000000    -3.294000000
C    -3.284000000     4.691000000    -2.380000000
H    -3.385000000     5.734000000    -2.092000000
C    -4.185000000     3.682000000    -2.005000000
O    -5.393000000     3.948000000    -1.353000000
C    -5.982000000     3.112000000    -0.430000000
C    -5.510000000     3.018000000     0.859000000
H    -4.750000000     3.713000000     1.207000000
C    -6.998000000     2.229000000    -0.847000000
H    -7.250000000     2.217000000    -1.904000000
C    -7.549000000     1.380000000     0.057000000
H    -8.297000000     0.648000000    -0.237000000
C    -7.055000000     1.212000000     1.355000000
H    -7.479000000     0.504000000     2.062000000
C    -5.997000000     2.056000000     1.702000000
O    -5.464000000     1.903000000     3.015000000
C    -4.622000000     0.863000000     3.394000000
C    -4.221000000     0.733000000     4.675000000
H    -4.421000000     1.557000000     5.355000000
C    -3.398000000    -0.289000000     5.046000000
O    -3.071000000    -0.279000000     6.377000000
C    -1.908000000    -0.517000000     7.007000000
C    -0.708000000    -0.701000000     6.369000000
H    -0.594000000    -0.757000000     5.290000000
C    -1.949000000    -0.420000000     8.395000000
H    -2.835000000    -0.098000000     8.936000000
C    -0.800000000    -0.662000000     9.115000000
H    -1.023000000    -0.624000000    10.179000000
C     0.394000000    -0.981000000     8.539000000
H     1.291000000    -0.972000000     9.153000000
C     0.463000000    -1.011000000     7.121000000
O     1.764000000    -1.019000000     6.522000000
C     2.066000000    -0.756000000     5.211000000
C     2.628000000     0.452000000     4.893000000
H     2.628000000     1.211000000     5.671000000
C     3.094000000     0.593000000     3.565000000
O     3.501000000     1.880000000     3.193000000
C     4.775000000     2.212000000     2.666000000
C     4.964000000     2.523000000     1.294000000
H     4.041000000     2.474000000     0.722000000
C     5.803000000     2.423000000     3.555000000
H     5.738000000     2.132000000     4.600000000
C     6.945000000     3.018000000     3.110000000
H     7.731000000     3.195000000     3.839000000
C     7.232000000     3.409000000     1.784000000
H     8.112000000     3.947000000     1.441000000
C     6.199000000     3.058000000     0.866000000
O     6.317000000     3.346000000    -0.458000000
C     5.371000000     3.157000000    -1.357000000
C     4.880000000     4.229000000    -2.077000000
H     5.293000000     5.214000000    -1.879000000
C     3.844000000     4.000000000    -2.996000000
O     3.404000000     5.209000000    -3.593000000
C     2.226000000     5.342000000    -4.322000000
C     2.051000000     5.101000000    -5.703000000
H     2.917000000     4.943000000    -6.339000000
C     0.718000000     4.982000000    -6.181000000
H     0.528000000     4.639000000    -7.195000000
C    -0.370000000     5.162000000    -5.354000000
H    -1.353000000     4.948000000    -5.766000000
C    -0.153000000     5.428000000    -4.077000000
C     1.146000000     5.516000000    -3.538000000
H     1.220000000     5.649000000    -2.462000000
C     0.991000000     2.861000000    -0.168000000
H     1.838000000     3.533000000    -0.284000000
C     1.240000000     1.491000000    -0.295000000
H     2.234000000     1.059000000    -0.380000000
C     0.146000000     0.607000000    -0.267000000
H     0.207000000    -0.498000000    -0.283000000
C    -1.207000000     1.101000000    -0.106000000
H    -2.095000000     0.475000000    -0.116000000
C    -1.387000000     2.477000000     0.052000000
H    -2.393000000     2.879000000     0.144000000
C    -0.305000000     3.338000000     0.071000000
C    -0.548000000     4.809000000     0.263000000
O    -1.700000000     5.228000000     0.565000000
O     0.410000000     5.600000000     0.377000000
O     0.593000000    10.337000000    -0.907000000
H    -0.333000000    10.544000000    -1.034000000
H     0.651000000     9.394000000    -1.062000000
O    -1.664000000     4.137000000     6.424000000
H    -1.389000000     4.844000000     5.840000000
H    -2.571000000     3.960000000     6.177000000
O    -0.611000000     1.508000000     3.269000000
H    -1.265000000     2.206000000     3.225000000
H    -0.023000000     1.684000000     2.535000000
O    -0.013000000     7.687000000    -1.102000000
H    -0.789000000     7.628000000    -1.659000000
H    -0.123000000     6.984000000    -0.462000000
O    -5.703000000     6.456000000     1.375000000
H    -5.749000000     6.219000000     2.301000000
H    -5.662000000     7.412000000     1.374000000
O     2.799000000     5.063000000     1.808000000
H     1.874000000     5.174000000     1.588000000
H     2.802000000     4.887000000     2.749000000
O     2.619000000     4.659000000     4.612000000
H     2.380000000     3.787000000     4.300000000
H     3.348000000     4.507000000     5.214000000
O    -2.055000000     3.958000000     3.047000000
H    -1.910000000     4.807000000     3.466000000
H    -2.273000000     4.173000000     2.141000000
O    -2.412000000     9.180000000     1.725000000
H    -1.581000000     8.862000000     2.078000000
H    -2.702000000     8.486000000     1.133000000
O     3.201000000     6.750000000    -0.615000000
H     2.250000000     6.795000000    -0.516000000
H     3.524000000     6.562000000     0.266000000
O    -4.160000000     4.015000000     4.854000000
H    -4.769000000     4.506000000     4.303000000
H    -3.422000000     3.815000000     4.278000000
O     0.351000000     2.437000000     5.598000000
H    -0.166000000     3.190000000     5.883000000
H    -0.130000000     2.086000000     4.849000000
O     1.786000000     8.713000000     1.841000000
H     2.052000000     9.286000000     1.123000000
H     2.505000000     8.770000000     2.472000000
O    -0.363000000     7.327000000     2.408000000
H    -0.582000000     6.677000000     1.740000000
H     0.501000000     7.652000000     2.152000000
O    -1.460000000     6.106000000     4.443000000
H    -1.947000000     6.892000000     4.691000000
H    -0.980000000     6.361000000     3.655000000
O    -3.305000000     7.324000000     0.109000000
H    -4.018000000     6.829000000     0.512000000
H    -2.573000000     6.707000000     0.079000000
O    -1.217000000     8.777000000    -4.154000000
H    -0.295000000     8.681000000    -3.916000000
H    -1.683000000     8.759000000    -3.318000000
O    -3.499000000     8.386000000    -2.456000000
H    -3.562000000     7.965000000    -1.599000000
H    -4.403000000     8.600000000    -2.685000000
O     3.348000000     7.162000000     4.382000000
H     3.014000000     6.276000000     4.521000000
H     2.983000000     7.672000000     5.106000000
