215
-1424.15165
C    -3.727000000    -1.434000000     3.692000000
H    -3.363000000    -2.315000000     4.214000000
C    -3.914000000    -1.361000000     2.299000000
C    -4.454000000    -0.198000000     1.778000000
H    -4.525000000     0.011000000     0.714000000
C    -3.292000000    -2.442000000     1.376000000
O    -2.709000000    -3.542000000     2.255000000
H    -2.509000000    -1.897000000     0.829000000
O    -4.221000000    -2.820000000     0.282000000
C    -3.670000000    -2.890000000    -0.911000000
C    -4.043000000    -1.873000000    -1.834000000
H    -4.837000000    -1.169000000    -1.600000000
C    -3.319000000    -1.870000000    -3.018000000
O    -3.371000000    -0.731000000    -3.854000000
C    -2.433000000    -2.910000000    -3.336000000
C    -1.692000000    -2.779000000    -4.629000000
H    -1.542000000    -3.747000000    -5.111000000
C    -0.367000000    -1.981000000    -4.452000000
C     0.796000000    -2.659000000    -4.150000000
H     0.750000000    -3.736000000    -4.012000000
H    -2.297000000    -2.343000000    -5.427000000
C    -2.113000000    -3.866000000    -2.404000000
H    -1.335000000    -4.611000000    -2.546000000
C    -2.801000000    -3.937000000    -1.221000000
C    -2.483000000    -5.165000000    -0.320000000
H    -2.257000000    -5.992000000    -0.996000000
H    -3.391000000    -5.505000000     0.183000000
C    -1.332000000    -4.852000000     0.625000000
C    -0.004000000    -5.260000000     0.321000000
H     0.183000000    -5.763000000    -0.624000000
C    -1.535000000    -4.147000000     1.809000000
C    -0.444000000    -3.782000000     2.644000000
H    -0.631000000    -3.335000000     3.617000000
C     0.809000000    -4.312000000     2.416000000
O     1.818000000    -3.788000000     3.152000000
C     2.490000000    -2.565000000     2.681000000
C     2.657000000    -1.562000000     3.768000000
C     3.639000000    -0.609000000     3.796000000
H     4.270000000    -0.437000000     2.928000000
C     1.683000000    -1.552000000     4.808000000
H     0.825000000    -2.214000000     4.726000000
O     3.674000000    -3.070000000     2.061000000
H     1.819000000    -2.227000000     1.877000000
C     1.060000000    -5.038000000     1.210000000
C     2.498000000    -5.310000000     0.733000000
H     2.414000000    -6.206000000     0.116000000
H     3.176000000    -5.651000000     1.518000000
C     3.087000000    -4.096000000     0.036000000
C     3.033000000    -4.040000000    -1.366000000
H     2.764000000    -4.900000000    -1.975000000
C     3.678000000    -3.070000000     0.685000000
C     4.187000000    -1.897000000     0.025000000
H     4.594000000    -1.091000000     0.630000000
C     3.989000000    -1.755000000    -1.319000000
O     4.366000000    -0.546000000    -1.876000000
C     3.342000000     0.374000000    -2.295000000
C     3.789000000     1.809000000    -1.970000000
C     4.453000000     2.024000000    -0.774000000
H     4.859000000     1.177000000    -0.228000000
C     3.154000000     2.800000000    -2.626000000
H     2.574000000     2.642000000    -3.532000000
O     3.011000000     0.115000000    -3.653000000
H     2.417000000     0.176000000    -1.734000000
C     3.434000000    -2.874000000    -2.053000000
C     3.260000000    -2.801000000    -3.524000000
H     3.164000000    -3.771000000    -4.015000000
H     4.191000000    -2.403000000    -3.932000000
C     1.973000000    -1.941000000    -3.909000000
C     1.928000000    -0.548000000    -3.921000000
C     0.813000000     0.141000000    -4.264000000
H     0.738000000     1.224000000    -4.327000000
C    -0.334000000    -0.600000000    -4.583000000
O    -1.484000000     0.050000000    -4.845000000
C    -2.330000000     0.284000000    -3.736000000
H    -1.856000000     0.130000000    -2.755000000
C    -2.838000000     1.745000000    -3.712000000
C    -3.933000000     2.128000000    -2.977000000
H    -4.535000000     1.361000000    -2.497000000
C    -2.049000000     2.750000000    -4.334000000
H    -1.229000000     2.465000000    -4.989000000
C    -2.407000000     4.119000000    -4.302000000
O    -1.601000000     5.098000000    -4.923000000
C    -3.479000000     4.402000000    -3.560000000
H    -3.772000000     5.448000000    -3.590000000
C    -4.354000000     3.463000000    -2.962000000
O    -5.428000000     3.836000000    -2.247000000
C    -6.087000000     3.113000000    -1.256000000
C    -5.365000000     3.009000000    -0.069000000
H    -4.444000000     3.570000000     0.073000000
C    -7.343000000     2.471000000    -1.419000000
H    -7.803000000     2.640000000    -2.389000000
C    -7.861000000     1.765000000    -0.395000000
H    -8.790000000     1.208000000    -0.490000000
C    -7.183000000     1.697000000     0.853000000
H    -7.711000000     1.155000000     1.633000000
C    -5.927000000     2.265000000     0.981000000
O    -5.198000000     2.069000000     2.147000000
C    -4.792000000     0.912000000     2.672000000
C    -4.587000000     0.750000000     4.076000000
H    -4.711000000     1.607000000     4.734000000
C    -3.994000000    -0.369000000     4.533000000
O    -3.723000000    -0.465000000     5.873000000
C    -2.588000000     0.037000000     6.473000000
C    -1.411000000    -0.677000000     6.500000000
H    -1.390000000    -1.709000000     6.160000000
C    -2.639000000     1.401000000     6.932000000
H    -3.531000000     2.010000000     6.817000000
C    -1.432000000     1.980000000     7.306000000
H    -1.331000000     3.056000000     7.424000000
C    -0.316000000     1.259000000     7.366000000
H     0.596000000     1.762000000     7.677000000
C    -0.219000000    -0.101000000     7.001000000
O     0.936000000    -0.757000000     6.874000000
C     1.784000000    -0.662000000     5.826000000
C     2.786000000     0.281000000     5.843000000
H     2.897000000     1.054000000     6.598000000
C     3.744000000     0.267000000     4.858000000
O     4.684000000     1.276000000     4.907000000
C     5.490000000     1.667000000     3.929000000
C     4.988000000     2.448000000     2.833000000
H     3.985000000     2.867000000     2.870000000
C     6.850000000     1.369000000     4.009000000
H     7.280000000     0.934000000     4.907000000
C     7.726000000     1.847000000     3.082000000
H     8.775000000     1.568000000     3.137000000
C     7.206000000     2.598000000     1.988000000
H     7.814000000     2.896000000     1.138000000
C     5.855000000     2.829000000     1.838000000
O     5.438000000     3.640000000     0.830000000
C     4.661000000     3.310000000    -0.336000000
C     4.001000000     4.338000000    -1.067000000
H     4.110000000     5.383000000    -0.792000000
C     3.278000000     4.100000000    -2.241000000
O     2.739000000     5.167000000    -2.892000000
C     1.901000000     5.080000000    -4.002000000
C     2.421000000     4.580000000    -5.219000000
H     3.464000000     4.295000000    -5.334000000
C     1.617000000     4.426000000    -6.355000000
H     2.089000000     4.000000000    -7.236000000
C     0.290000000     4.603000000    -6.222000000
H    -0.387000000     4.283000000    -7.010000000
C    -0.280000000     5.006000000    -5.043000000
C     0.527000000     5.329000000    -3.962000000
H    -0.005000000     5.578000000    -3.047000000
C     1.084000000     1.832000000     1.117000000
H     1.939000000     2.371000000     1.517000000
C     1.203000000     0.531000000     0.574000000
H     2.156000000     0.009000000     0.579000000
C     0.164000000    -0.033000000    -0.126000000
H     0.163000000    -1.044000000    -0.447000000
C    -1.086000000     0.632000000    -0.129000000
H    -1.971000000     0.231000000    -0.617000000
C    -1.213000000     1.908000000     0.352000000
H    -2.171000000     2.408000000     0.229000000
C    -0.165000000     2.492000000     1.068000000
C    -0.348000000     3.865000000     1.588000000
O    -1.377000000     4.557000000     1.420000000
O     0.619000000     4.314000000     2.185000000
O    -3.141000000     4.352000000     6.125000000
H    -3.723000000     4.264000000     5.370000000
H    -2.438000000     4.926000000     5.820000000
O     0.503000000     4.353000000     5.050000000
H    -0.011000000     3.625000000     5.399000000
H     0.191000000     4.458000000     4.151000000
O    -5.697000000     5.428000000     3.217000000
H    -6.277000000     4.735000000     3.533000000
H    -4.854000000     4.994000000     3.088000000
O     2.539000000     6.057000000     3.058000000
H     2.002000000     5.403000000     2.610000000
H     2.192000000     6.081000000     3.950000000
O    -3.120000000     7.303000000     4.541000000
H    -3.863000000     7.166000000     3.954000000
H    -3.492000000     7.761000000     5.295000000
O    -5.296000000     6.815000000    -0.010000000
H    -6.071000000     6.361000000    -0.340000000
H    -5.526000000     7.060000000     0.886000000
O     5.553000000     5.577000000     4.125000000
H     4.621000000     5.476000000     3.928000000
H     5.608000000     6.403000000     4.605000000
O    -3.346000000     3.994000000     3.099000000
H    -3.709000000     3.311000000     2.536000000
H    -2.567000000     4.299000000     2.633000000
O    -3.112000000     9.489000000    -0.062000000
H    -2.799000000     8.584000000    -0.029000000
H    -3.247000000     9.661000000    -0.994000000
O     4.922000000     6.583000000     1.562000000
H     5.442000000     6.217000000     2.277000000
H     4.026000000     6.305000000     1.751000000
O     1.934000000     6.262000000     6.180000000
H     1.216000000     6.850000000     6.415000000
H     1.501000000     5.475000000     5.849000000
O    -0.463000000     7.554000000     6.478000000
H    -0.316000000     8.499000000     6.515000000
H    -0.825000000     7.402000000     5.605000000
O     2.274000000     9.987000000     2.467000000
H     2.645000000     9.961000000     1.584000000
H     1.353000000     9.756000000     2.347000000
O    -0.708000000     6.916000000     3.189000000
H    -0.693000000     6.243000000     2.509000000
H    -1.613000000     6.922000000     3.501000000
O     2.548000000     7.869000000    -2.436000000
H     2.427000000     6.919000000    -2.446000000
H     2.727000000     8.097000000    -3.348000000
O    -0.340000000     9.528000000     2.942000000
H    -0.486000000     8.620000000     3.208000000
H    -0.875000000     9.635000000     2.156000000
O    -2.494000000     6.726000000     0.123000000
H    -3.390000000     6.522000000    -0.147000000
H    -2.158000000     5.903000000     0.477000000
O     1.691000000     6.664000000     0.401000000
H     2.135000000     7.194000000     1.063000000
H     1.123000000     6.080000000     0.903000000
O    -0.585000000     7.970000000    -1.684000000
H    -1.284000000     7.461000000    -1.273000000
H     0.218000000     7.649000000    -1.274000000
