215
-1454.49955
C    -4.242000000    -1.271000000     2.890000000
H    -4.070000000    -2.308000000     3.165000000
C    -4.140000000    -0.870000000     1.563000000
C    -4.328000000     0.486000000     1.298000000
H    -4.133000000     0.872000000     0.301000000
C    -3.696000000    -1.845000000     0.395000000
O    -3.629000000    -3.239000000     0.864000000
H    -2.655000000    -1.608000000     0.130000000
O    -4.492000000    -1.676000000    -0.789000000
C    -3.871000000    -1.660000000    -2.038000000
C    -3.805000000    -0.444000000    -2.629000000
H    -4.406000000     0.399000000    -2.296000000
C    -3.096000000    -0.317000000    -3.836000000
O    -2.955000000     0.970000000    -4.302000000
C    -2.420000000    -1.378000000    -4.418000000
C    -1.461000000    -1.123000000    -5.495000000
H    -1.274000000    -2.131000000    -5.871000000
C    -0.147000000    -0.652000000    -4.958000000
C     0.894000000    -1.608000000    -4.779000000
H     0.774000000    -2.642000000    -5.091000000
H    -1.889000000    -0.504000000    -6.286000000
C    -2.447000000    -2.642000000    -3.731000000
H    -1.949000000    -3.514000000    -4.147000000
C    -3.237000000    -2.747000000    -2.566000000
C    -3.350000000    -4.079000000    -1.941000000
H    -3.337000000    -4.915000000    -2.643000000
H    -4.377000000    -4.141000000    -1.576000000
C    -2.378000000    -4.412000000    -0.795000000
C    -1.154000000    -4.994000000    -1.195000000
H    -0.901000000    -5.165000000    -2.239000000
C    -2.570000000    -3.969000000     0.499000000
C    -1.556000000    -4.149000000     1.481000000
H    -1.734000000    -3.810000000     2.498000000
C    -0.405000000    -4.833000000     1.134000000
O     0.580000000    -4.885000000     2.043000000
C     1.442000000    -3.757000000     1.947000000
C     1.705000000    -3.168000000     3.344000000
C     2.970000000    -2.596000000     3.621000000
H     3.625000000    -2.502000000     2.759000000
C     0.777000000    -3.312000000     4.433000000
H    -0.164000000    -3.824000000     4.250000000
O     2.618000000    -4.090000000     1.272000000
H     1.006000000    -2.898000000     1.416000000
C    -0.158000000    -5.177000000    -0.182000000
C     1.200000000    -5.542000000    -0.689000000
H     1.111000000    -6.214000000    -1.545000000
H     1.813000000    -6.221000000    -0.093000000
C     2.175000000    -4.447000000    -1.037000000
C     2.287000000    -4.076000000    -2.352000000
H     1.584000000    -4.452000000    -3.090000000
C     2.891000000    -3.758000000    -0.033000000
C     3.878000000    -2.845000000    -0.395000000
H     4.450000000    -2.414000000     0.422000000
C     4.022000000    -2.418000000    -1.703000000
O     4.650000000    -1.153000000    -1.865000000
C     3.775000000     0.031000000    -1.902000000
C     4.338000000     1.170000000    -1.002000000
C     5.193000000     0.980000000     0.073000000
H     5.574000000    -0.024000000     0.240000000
C     3.717000000     2.417000000    -1.061000000
H     3.021000000     2.639000000    -1.866000000
O     3.473000000     0.507000000    -3.250000000
H     2.808000000    -0.195000000    -1.428000000
C     3.088000000    -2.935000000    -2.691000000
C     3.174000000    -2.405000000    -4.086000000
H     2.934000000    -3.105000000    -4.889000000
H     4.182000000    -2.144000000    -4.414000000
C     2.179000000    -1.253000000    -4.304000000
C     2.347000000     0.056000000    -3.835000000
C     1.403000000     1.025000000    -4.119000000
H     1.682000000     2.055000000    -3.917000000
C     0.140000000     0.680000000    -4.596000000
O    -0.763000000     1.701000000    -4.741000000
C    -1.898000000     1.715000000    -3.815000000
H    -1.494000000     1.354000000    -2.858000000
C    -2.170000000     3.144000000    -3.437000000
C    -3.470000000     3.585000000    -3.128000000
H    -4.348000000     2.980000000    -3.338000000
C    -1.132000000     4.038000000    -3.259000000
H    -0.105000000     3.699000000    -3.367000000
C    -1.437000000     5.373000000    -2.907000000
O    -0.496000000     6.286000000    -2.642000000
C    -2.726000000     5.736000000    -2.607000000
H    -3.069000000     6.745000000    -2.390000000
C    -3.753000000     4.825000000    -2.693000000
O    -5.052000000     5.116000000    -2.291000000
C    -5.524000000     4.504000000    -1.044000000
C    -4.654000000     4.036000000     0.009000000
H    -3.591000000     4.045000000    -0.219000000
C    -6.908000000     4.626000000    -0.764000000
H    -7.566000000     4.992000000    -1.548000000
C    -7.416000000     4.028000000     0.451000000
H    -8.483000000     4.104000000     0.648000000
C    -6.566000000     3.491000000     1.429000000
H    -6.895000000     2.995000000     2.339000000
C    -5.162000000     3.495000000     1.218000000
O    -4.435000000     2.772000000     2.093000000
C    -4.584000000     1.429000000     2.312000000
C    -4.600000000     1.026000000     3.661000000
H    -4.620000000     1.708000000     4.507000000
C    -4.376000000    -0.363000000     3.939000000
O    -4.233000000    -0.806000000     5.233000000
C    -3.018000000    -0.631000000     5.898000000
C    -2.088000000    -1.627000000     5.800000000
H    -2.303000000    -2.575000000     5.313000000
C    -2.824000000     0.476000000     6.724000000
H    -3.514000000     1.316000000     6.712000000
C    -1.620000000     0.635000000     7.440000000
H    -1.538000000     1.500000000     8.093000000
C    -0.641000000    -0.402000000     7.417000000
H     0.369000000    -0.230000000     7.778000000
C    -0.815000000    -1.453000000     6.541000000
O     0.148000000    -2.421000000     6.535000000
C     1.039000000    -2.601000000     5.603000000
C     2.254000000    -1.969000000     5.765000000
H     2.413000000    -1.478000000     6.721000000
C     3.243000000    -2.024000000     4.809000000
O     4.410000000    -1.401000000     5.088000000
C     5.342000000    -0.989000000     4.211000000
C     5.450000000     0.284000000     3.720000000
H     4.842000000     1.104000000     4.094000000
C     6.232000000    -1.951000000     3.760000000
H     6.189000000    -2.951000000     4.185000000
C     7.222000000    -1.557000000     2.877000000
H     8.023000000    -2.200000000     2.521000000
C     7.209000000    -0.325000000     2.261000000
H     7.847000000    -0.272000000     1.383000000
C     6.289000000     0.601000000     2.684000000
O     6.232000000     1.832000000     2.078000000
C     5.363000000     1.986000000     1.015000000
C     4.779000000     3.193000000     0.936000000
H     4.970000000     4.018000000     1.618000000
C     3.939000000     3.466000000    -0.182000000
O     3.310000000     4.687000000    -0.250000000
C     2.787000000     5.204000000    -1.410000000
C     3.578000000     5.500000000    -2.520000000
H     4.649000000     5.347000000    -2.417000000
C     3.053000000     6.039000000    -3.685000000
H     3.754000000     6.288000000    -4.477000000
C     1.650000000     6.227000000    -3.781000000
H     1.161000000     6.478000000    -4.719000000
C     0.851000000     5.998000000    -2.670000000
C     1.459000000     5.472000000    -1.516000000
H     0.719000000     5.176000000    -0.777000000
C     1.490000000     0.953000000     1.358000000
H     2.428000000     1.195000000     1.850000000
C     1.428000000    -0.211000000     0.604000000
H     2.242000000    -0.920000000     0.484000000
C     0.292000000    -0.345000000    -0.262000000
H     0.236000000    -1.225000000    -0.887000000
C    -0.722000000     0.575000000    -0.192000000
H    -1.635000000     0.352000000    -0.739000000
C    -0.665000000     1.692000000     0.674000000
H    -1.593000000     2.254000000     0.739000000
C     0.458000000     1.908000000     1.501000000
C     0.562000000     3.093000000     2.439000000
O    -0.274000000     3.990000000     2.226000000
O     1.382000000     3.053000000     3.310000000
O     3.344000000     4.380000000     7.848000000
H     4.145000000     4.202000000     7.355000000
H     3.361000000     5.325000000     7.999000000
O    -2.179000000     7.438000000     7.321000000
H    -2.840000000     7.065000000     6.739000000
H    -1.447000000     6.822000000     7.278000000
O    -2.229000000     3.085000000     3.608000000
H    -1.554000000     3.629000000     3.202000000
H    -2.931000000     3.051000000     2.958000000
O     0.082000000     6.053000000     6.778000000
H     0.459000000     6.604000000     7.463000000
H     0.400000000     5.172000000     6.977000000
O    -0.730000000     6.165000000     4.226000000
H    -0.403000000     6.000000000     5.110000000
H    -0.373000000     5.449000000     3.701000000
O     0.867000000     1.376000000     5.355000000
H     1.208000000     1.852000000     4.598000000
H     0.094000000     0.919000000     5.023000000
O    -4.684000000     6.444000000     1.816000000
H    -3.929000000     5.857000000     1.855000000
H    -5.054000000     6.302000000     0.945000000
O     0.919000000     3.517000000     7.076000000
H     1.129000000     2.900000000     6.375000000
H     1.770000000     3.848000000     7.366000000
O    -1.224000000     0.416000000     3.614000000
H    -1.296000000     0.206000000     2.683000000
H    -1.481000000     1.337000000     3.672000000
O     5.380000000     6.427000000     2.559000000
H     4.992000000     7.290000000     2.415000000
H     4.743000000     5.965000000     3.103000000
O    -3.377000000     6.428000000     4.956000000
H    -2.571000000     6.662000000     4.496000000
H    -3.307000000     5.484000000     5.097000000
O    -2.065000000     3.799000000     6.257000000
H    -2.113000000     3.726000000     5.304000000
H    -1.148000000     3.617000000     6.465000000
O     2.204000000     7.553000000     4.548000000
H     1.632000000     8.255000000     4.857000000
H     1.898000000     7.367000000     3.660000000
O     3.578000000     1.229000000     6.429000000
H     3.674000000     2.179000000     6.496000000
H     2.692000000     1.101000000     6.091000000
O    -1.290000000     7.847000000    -0.037000000
H    -1.548000000     8.755000000    -0.196000000
H    -0.405000000     7.784000000    -0.395000000
O     5.097000000     4.113000000     5.934000000
H     5.911000000     3.973000000     5.451000000
H     4.441000000     4.277000000     5.256000000
O    -2.246000000     5.465000000     1.247000000
H    -2.120000000     6.301000000     0.798000000
H    -1.361000000     5.186000000     1.486000000
O     3.336000000     4.881000000     3.896000000
H     2.849000000     5.541000000     4.389000000
H     2.662000000     4.306000000     3.535000000
O     1.687000000     6.345000000     2.093000000
H     2.429000000     5.769000000     1.909000000
H     0.918000000     5.782000000     2.006000000
