215
-1464.10839
C    -4.787000000     1.043000000    -1.908000000
H    -4.836000000     1.599000000    -2.841000000
C    -3.965000000     1.545000000    -0.879000000
C    -3.864000000     0.765000000     0.317000000
H    -3.196000000     1.202000000     1.055000000
C    -2.982000000     2.697000000    -1.047000000
O    -3.057000000     3.312000000    -2.320000000
H    -1.978000000     2.265000000    -0.919000000
O    -3.048000000     3.695000000     0.013000000
C    -1.852000000     4.175000000     0.600000000
C    -1.453000000     3.818000000     1.896000000
H    -2.172000000     3.246000000     2.476000000
C    -0.233000000     4.127000000     2.363000000
O     0.002000000     3.532000000     3.614000000
C     0.740000000     4.705000000     1.545000000
C     2.187000000     4.889000000     1.962000000
H     2.625000000     5.624000000     1.283000000
C     3.009000000     3.617000000     1.838000000
C     3.808000000     3.288000000     0.706000000
H     3.833000000     3.939000000    -0.165000000
H     2.310000000     5.285000000     2.972000000
C     0.378000000     5.102000000     0.231000000
H     1.091000000     5.680000000    -0.351000000
C    -0.966000000     4.820000000    -0.260000000
C    -1.241000000     5.272000000    -1.640000000
H    -0.872000000     6.296000000    -1.729000000
H    -2.300000000     5.537000000    -1.664000000
C    -0.792000000     4.320000000    -2.716000000
C     0.443000000     4.150000000    -3.356000000
H     1.095000000     4.993000000    -3.144000000
C    -1.778000000     3.318000000    -3.036000000
C    -1.585000000     2.281000000    -3.899000000
H    -2.340000000     1.533000000    -4.129000000
C    -0.279000000     2.055000000    -4.383000000
O     0.010000000     0.901000000    -5.105000000
C     0.441000000    -0.217000000    -4.306000000
C    -0.443000000    -1.405000000    -4.582000000
C    -0.061000000    -2.674000000    -4.086000000
H     0.917000000    -2.699000000    -3.613000000
C    -1.611000000    -1.290000000    -5.405000000
H    -1.898000000    -0.384000000    -5.932000000
O     1.838000000    -0.389000000    -4.544000000
H     0.322000000    -0.040000000    -3.227000000
C     0.733000000     2.994000000    -4.058000000
C     2.123000000     2.574000000    -4.502000000
H     2.729000000     3.482000000    -4.466000000
H     2.046000000     2.330000000    -5.563000000
C     2.818000000     1.590000000    -3.603000000
C     3.738000000     2.029000000    -2.632000000
H     3.984000000     3.088000000    -2.591000000
C     2.638000000     0.203000000    -3.646000000
C     3.113000000    -0.651000000    -2.653000000
H     2.880000000    -1.712000000    -2.677000000
C     3.999000000    -0.138000000    -1.650000000
O     4.415000000    -1.094000000    -0.713000000
C     3.872000000    -0.986000000     0.661000000
C     3.587000000    -2.379000000     1.189000000
C     3.161000000    -3.393000000     0.363000000
H     2.942000000    -3.174000000    -0.679000000
C     3.708000000    -2.572000000     2.580000000
H     4.192000000    -1.817000000     3.195000000
O     4.788000000    -0.226000000     1.483000000
H     2.873000000    -0.533000000     0.582000000
C     4.347000000     1.240000000    -1.641000000
C     5.204000000     1.763000000    -0.642000000
H     5.589000000     2.739000000    -0.942000000
H     6.084000000     1.155000000    -0.418000000
C     4.420000000     2.042000000     0.598000000
C     4.361000000     1.120000000     1.610000000
C     3.639000000     1.393000000     2.750000000
H     3.408000000     0.658000000     3.516000000
C     2.965000000     2.637000000     2.809000000
O     2.165000000     2.781000000     3.920000000
C     0.781000000     2.350000000     3.728000000
H     0.698000000     1.956000000     2.705000000
C     0.268000000     1.441000000     4.838000000
C    -1.057000000     1.169000000     4.981000000
H    -1.738000000     1.808000000     4.424000000
C     1.167000000     0.636000000     5.590000000
H     2.226000000     0.875000000     5.541000000
C     0.677000000    -0.293000000     6.514000000
O     1.542000000    -0.924000000     7.363000000
C    -0.666000000    -0.503000000     6.630000000
H    -1.050000000    -1.184000000     7.385000000
C    -1.544000000     0.217000000     5.808000000
O    -2.898000000     0.026000000     5.989000000
C    -3.761000000     0.189000000     4.901000000
C    -3.706000000    -0.557000000     3.763000000
H    -2.811000000    -1.155000000     3.617000000
C    -4.847000000     1.007000000     5.086000000
H    -4.829000000     1.653000000     5.961000000
C    -5.953000000     1.034000000     4.285000000
H    -6.776000000     1.731000000     4.419000000
C    -5.915000000     0.234000000     3.132000000
H    -6.802000000     0.304000000     2.508000000
C    -4.736000000    -0.472000000     2.844000000
O    -4.626000000    -1.140000000     1.644000000
C    -4.671000000    -0.362000000     0.469000000
C    -5.407000000    -0.817000000    -0.566000000
H    -5.878000000    -1.778000000    -0.375000000
C    -5.557000000    -0.082000000    -1.747000000
O    -6.304000000    -0.696000000    -2.726000000
C    -5.964000000    -0.627000000    -4.096000000
C    -4.759000000    -1.249000000    -4.458000000
H    -4.139000000    -1.731000000    -3.705000000
C    -6.888000000    -0.244000000    -4.948000000
H    -7.811000000     0.223000000    -4.615000000
C    -6.734000000    -0.498000000    -6.329000000
H    -7.589000000    -0.369000000    -6.989000000
C    -5.637000000    -1.290000000    -6.736000000
H    -5.526000000    -1.579000000    -7.778000000
C    -4.601000000    -1.570000000    -5.811000000
O    -3.593000000    -2.409000000    -6.259000000
C    -2.365000000    -2.496000000    -5.568000000
C    -1.988000000    -3.712000000    -5.003000000
H    -2.599000000    -4.603000000    -5.121000000
C    -0.846000000    -3.777000000    -4.272000000
O    -0.414000000    -5.007000000    -3.794000000
C     0.785000000    -5.239000000    -3.228000000
C     0.848000000    -5.247000000    -1.859000000
H    -0.045000000    -5.207000000    -1.241000000
C     1.919000000    -5.399000000    -4.047000000
H     1.788000000    -5.317000000    -5.123000000
C     3.152000000    -5.435000000    -3.481000000
H     4.112000000    -5.421000000    -3.991000000
C     3.209000000    -5.551000000    -2.126000000
H     4.163000000    -5.568000000    -1.605000000
C     2.120000000    -5.470000000    -1.323000000
O     2.397000000    -5.602000000     0.031000000
C     2.906000000    -4.658000000     0.847000000
C     3.020000000    -4.872000000     2.224000000
H     2.629000000    -5.795000000     2.644000000
C     3.406000000    -3.833000000     3.063000000
O     3.533000000    -4.140000000     4.345000000
C     3.605000000    -3.286000000     5.351000000
C     4.661000000    -3.311000000     6.266000000
H     5.523000000    -3.959000000     6.128000000
C     4.683000000    -2.674000000     7.473000000
H     5.459000000    -2.775000000     8.228000000
C     3.607000000    -1.852000000     7.808000000
H     3.537000000    -1.376000000     8.783000000
C     2.542000000    -1.728000000     6.909000000
C     2.481000000    -2.483000000     5.735000000
H     1.643000000    -2.258000000     5.080000000
C    -1.623000000    -1.910000000    -0.335000000
H    -2.299000000    -2.472000000    -0.974000000
C    -1.028000000    -0.740000000    -0.886000000
H    -1.474000000    -0.410000000    -1.820000000
C    -0.144000000    -0.057000000    -0.079000000
H     0.476000000     0.726000000    -0.537000000
C     0.155000000    -0.443000000     1.200000000
H     0.920000000     0.081000000     1.768000000
C    -0.333000000    -1.608000000     1.694000000
H     0.072000000    -1.898000000     2.660000000
C    -1.291000000    -2.340000000     0.962000000
C    -1.645000000    -3.737000000     1.410000000
O    -1.347000000    -4.115000000     2.503000000
O    -2.434000000    -4.363000000     0.728000000
O    -5.037000000    -6.923000000     5.824000000
H    -4.227000000    -6.417000000     5.884000000
H    -5.651000000    -6.339000000     5.379000000
O    -5.648000000    -6.789000000     2.244000000
H    -5.956000000    -6.405000000     3.065000000
H    -5.463000000    -6.036000000     1.683000000
O     0.249000000    -5.262000000     5.824000000
H     1.006000000    -5.494000000     6.362000000
H    -0.397000000    -5.944000000     6.012000000
O    -6.784000000    -5.296000000     4.457000000
H    -7.619000000    -5.128000000     4.021000000
H    -6.441000000    -4.426000000     4.662000000
O     0.310000000    -9.050000000     3.153000000
H     0.707000000    -9.468000000     2.389000000
H     0.092000000    -8.166000000     2.855000000
O    -2.625000000    -7.691000000    -2.381000000
H    -1.922000000    -7.810000000    -3.019000000
H    -3.105000000    -8.519000000    -2.396000000
O    -5.260000000    -4.585000000     0.818000000
H    -4.357000000    -4.594000000     0.502000000
H    -5.245000000    -3.991000000     1.569000000
O    -2.649000000    -7.058000000     1.618000000
H    -2.710000000    -6.159000000     1.297000000
H    -1.785000000    -7.108000000     2.027000000
O    -3.544000000    -5.327000000    -1.570000000
H    -3.250000000    -6.150000000    -1.960000000
H    -2.915000000    -5.156000000    -0.868000000
O    -3.679000000    -9.451000000     0.474000000
H    -4.338000000    -9.571000000     1.158000000
H    -3.254000000    -8.623000000     0.694000000
O    -3.994000000    -4.381000000     3.283000000
H    -3.933000000    -3.732000000     3.983000000
H    -3.085000000    -4.579000000     3.059000000
O    -5.684000000    -4.168000000    -3.013000000
H    -6.462000000    -4.492000000    -2.559000000
H    -4.962000000    -4.357000000    -2.414000000
O    -3.262000000    -3.600000000     6.183000000
H    -2.878000000    -4.329000000     6.670000000
H    -2.518000000    -3.185000000     5.746000000
O    -0.049000000    -6.195000000     3.199000000
H     0.117000000    -6.048000000     4.131000000
H    -0.472000000    -5.390000000     2.901000000
O    -5.580000000    -7.469000000    -0.296000000
H    -5.415000000    -7.468000000     0.647000000
H    -5.069000000    -6.732000000    -0.629000000
O    -7.843000000    -4.290000000     0.292000000
H    -6.890000000    -4.341000000     0.368000000
H    -8.078000000    -5.027000000    -0.271000000
O    -6.496000000    -2.621000000     4.997000000
H    -5.815000000    -1.948000000     5.020000000
H    -7.315000000    -2.131000000     4.931000000
O    -1.047000000    -3.084000000     4.830000000
H    -1.075000000    -3.615000000     4.034000000
H    -0.454000000    -3.557000000     5.413000000
O    -2.888000000    -8.178000000     4.373000000
H    -2.930000000    -8.147000000     3.418000000
H    -3.687000000    -7.737000000     4.663000000
