215
-1434.68244
C    -4.231000000    -0.454000000     2.383000000
H    -3.892000000    -1.483000000     2.470000000
C    -4.583000000     0.080000000     1.174000000
C    -5.125000000     1.317000000     1.152000000
H    -5.373000000     1.778000000     0.200000000
C    -4.324000000    -0.563000000    -0.235000000
O    -4.692000000    -1.979000000    -0.185000000
H    -3.225000000    -0.606000000    -0.274000000
O    -4.881000000     0.051000000    -1.383000000
C    -4.069000000     0.375000000    -2.420000000
C    -3.509000000     1.640000000    -2.542000000
H    -3.727000000     2.465000000    -1.868000000
C    -2.556000000     1.924000000    -3.535000000
O    -2.024000000     3.199000000    -3.518000000
C    -2.115000000     0.910000000    -4.363000000
C    -1.130000000     1.157000000    -5.527000000
H    -1.362000000     0.394000000    -6.273000000
C     0.304000000     1.014000000    -5.025000000
C     0.863000000    -0.265000000    -5.030000000
H     0.291000000    -1.058000000    -5.503000000
H    -1.353000000     2.165000000    -5.883000000
C    -2.641000000    -0.363000000    -4.242000000
H    -2.450000000    -1.106000000    -5.012000000
C    -3.564000000    -0.683000000    -3.243000000
C    -4.161000000    -2.045000000    -3.066000000
H    -4.002000000    -2.601000000    -3.993000000
H    -5.216000000    -1.965000000    -2.798000000
C    -3.435000000    -2.867000000    -2.038000000
C    -2.292000000    -3.634000000    -2.449000000
H    -2.096000000    -3.535000000    -3.514000000
C    -3.828000000    -2.900000000    -0.690000000
C    -2.957000000    -3.578000000     0.181000000
H    -3.172000000    -3.595000000     1.246000000
C    -1.825000000    -4.312000000    -0.252000000
O    -0.920000000    -4.844000000     0.617000000
C     0.395000000    -4.141000000     0.843000000
C     0.649000000    -4.099000000     2.315000000
C     1.969000000    -4.289000000     2.813000000
H     2.823000000    -4.473000000     2.165000000
C    -0.369000000    -3.916000000     3.259000000
H    -1.399000000    -3.771000000     2.944000000
O     1.400000000    -4.831000000     0.143000000
H     0.340000000    -3.088000000     0.529000000
C    -1.474000000    -4.286000000    -1.547000000
C    -0.366000000    -5.129000000    -2.098000000
H    -0.569000000    -5.446000000    -3.123000000
H    -0.281000000    -6.024000000    -1.479000000
C     0.958000000    -4.272000000    -2.165000000
C     1.329000000    -3.620000000    -3.324000000
H     0.723000000    -3.530000000    -4.221000000
C     1.789000000    -4.239000000    -1.032000000
C     2.844000000    -3.389000000    -0.984000000
H     3.410000000    -3.286000000    -0.062000000
C     3.210000000    -2.685000000    -2.135000000
O     4.179000000    -1.731000000    -2.018000000
C     3.726000000    -0.390000000    -1.814000000
C     4.329000000     0.098000000    -0.511000000
C     5.076000000    -0.730000000     0.353000000
H     5.214000000    -1.784000000     0.125000000
C     3.970000000     1.359000000    -0.102000000
H     3.343000000     2.015000000    -0.700000000
O     3.871000000     0.414000000    -2.957000000
H     2.657000000    -0.356000000    -1.557000000
C     2.478000000    -2.813000000    -3.324000000
C     2.798000000    -1.857000000    -4.538000000
H     2.595000000    -2.469000000    -5.420000000
H     3.878000000    -1.700000000    -4.579000000
C     2.147000000    -0.491000000    -4.455000000
C     2.775000000     0.532000000    -3.733000000
C     2.190000000     1.800000000    -3.802000000
H     2.651000000     2.582000000    -3.205000000
C     0.973000000     1.996000000    -4.382000000
O     0.258000000     3.192000000    -4.164000000
C    -0.672000000     3.268000000    -3.002000000
H    -0.457000000     2.398000000    -2.363000000
C    -0.434000000     4.541000000    -2.083000000
C    -1.484000000     4.906000000    -1.178000000
H    -2.423000000     4.371000000    -1.060000000
C     0.784000000     5.218000000    -2.104000000
H     1.575000000     4.963000000    -2.805000000
C     0.990000000     6.194000000    -1.087000000
O     2.187000000     6.789000000    -0.845000000
C    -0.034000000     6.530000000    -0.209000000
H     0.124000000     7.325000000     0.515000000
C    -1.266000000     5.920000000    -0.275000000
O    -2.194000000     6.275000000     0.657000000
C    -3.532000000     5.890000000     0.640000000
C    -3.970000000     4.724000000     1.291000000
H    -3.300000000     4.009000000     1.760000000
C    -4.449000000     6.692000000    -0.055000000
H    -3.997000000     7.516000000    -0.602000000
C    -5.751000000     6.416000000     0.038000000
H    -6.504000000     7.009000000    -0.475000000
C    -6.210000000     5.366000000     0.830000000
H    -7.264000000     5.197000000     1.040000000
C    -5.373000000     4.456000000     1.417000000
O    -5.926000000     3.360000000     2.127000000
C    -5.383000000     2.061000000     2.303000000
C    -5.073000000     1.486000000     3.509000000
H    -5.178000000     2.067000000     4.421000000
C    -4.482000000     0.210000000     3.596000000
O    -4.014000000    -0.236000000     4.802000000
C    -3.825000000    -1.553000000     4.964000000
C    -2.520000000    -1.991000000     5.100000000
H    -1.678000000    -1.404000000     4.742000000
C    -4.883000000    -2.416000000     5.193000000
H    -5.902000000    -2.049000000     5.285000000
C    -4.688000000    -3.701000000     5.625000000
H    -5.511000000    -4.280000000     6.036000000
C    -3.380000000    -4.172000000     5.700000000
H    -3.223000000    -5.195000000     6.031000000
C    -2.306000000    -3.351000000     5.530000000
O    -0.989000000    -3.764000000     5.582000000
C    -0.060000000    -3.805000000     4.630000000
C     1.253000000    -3.996000000     5.075000000
H     1.455000000    -3.908000000     6.139000000
C     2.241000000    -4.045000000     4.126000000
O     3.545000000    -3.883000000     4.595000000
C     4.692000000    -3.688000000     3.845000000
C     5.009000000    -2.458000000     3.206000000
H     4.300000000    -1.635000000     3.205000000
C     5.710000000    -4.609000000     3.999000000
H     5.471000000    -5.489000000     4.590000000
C     6.923000000    -4.457000000     3.389000000
H     7.705000000    -5.205000000     3.494000000
C     7.273000000    -3.264000000     2.791000000
H     8.283000000    -3.119000000     2.416000000
C     6.286000000    -2.269000000     2.668000000
O     6.583000000    -1.028000000     2.144000000
C     5.684000000    -0.163000000     1.500000000
C     5.545000000     1.224000000     1.777000000
H     6.137000000     1.689000000     2.561000000
C     4.680000000     1.959000000     0.971000000
O     4.408000000     3.253000000     1.434000000
C     4.496000000     4.326000000     0.569000000
C     5.581000000     4.425000000    -0.293000000
H     6.370000000     3.681000000    -0.219000000
C     5.523000000     5.430000000    -1.320000000
H     6.342000000     5.378000000    -2.034000000
C     4.436000000     6.298000000    -1.371000000
H     4.345000000     7.084000000    -2.116000000
C     3.336000000     6.077000000    -0.543000000
C     3.377000000     5.147000000     0.511000000
H     2.514000000     4.827000000     1.089000000
C     1.046000000    -0.059000000     2.152000000
H     2.012000000    -0.151000000     2.642000000
C     0.937000000    -0.473000000     0.820000000
H     1.699000000    -1.099000000     0.364000000
C    -0.138000000    -0.043000000     0.012000000
H    -0.335000000    -0.538000000    -0.966000000
C    -1.087000000     0.805000000     0.618000000
H    -2.012000000     1.085000000     0.120000000
C    -0.949000000     1.255000000     1.944000000
H    -1.710000000     1.941000000     2.305000000
C     0.097000000     0.813000000     2.740000000
C     0.285000000     1.303000000     4.172000000
O    -0.365000000     2.152000000     4.656000000
O     1.191000000     0.779000000     4.844000000
O     3.932000000    -0.348000000     7.465000000
H     4.402000000    -1.180000000     7.396000000
H     4.056000000    -0.078000000     8.375000000
O     1.506000000     3.714000000     5.671000000
H     1.964000000     3.229000000     6.357000000
H     0.873000000     3.089000000     5.317000000
O    -5.461000000     1.259000000     7.315000000
H    -4.918000000     0.475000000     7.402000000
H    -4.856000000     1.986000000     7.460000000
O     0.889000000     6.224000000     7.100000000
H    -0.030000000     5.984000000     6.984000000
H     1.327000000     5.881000000     6.321000000
O    -2.555000000     3.118000000     5.926000000
H    -3.194000000     3.370000000     5.260000000
H    -1.745000000     2.973000000     5.438000000
O    -0.264000000    -2.123000000     9.186000000
H     0.530000000    -2.449000000     9.611000000
H     0.054000000    -1.647000000     8.419000000
O     3.660000000     1.433000000     5.674000000
H     2.736000000     1.384000000     5.429000000
H     3.789000000     0.696000000     6.270000000
O     0.596000000     4.560000000     9.577000000
H     0.706000000     5.088000000     8.786000000
H     1.335000000     3.952000000     9.564000000
O     0.172000000     7.293000000     3.169000000
H    -0.754000000     7.443000000     3.355000000
H     0.257000000     6.340000000     3.128000000
O    -2.008000000     6.027000000     6.537000000
H    -2.164000000     5.128000000     6.827000000
H    -2.533000000     6.117000000     5.742000000
O    -2.739000000    -1.248000000     8.918000000
H    -1.995000000    -1.762000000     9.232000000
H    -2.344000000    -0.553000000     8.391000000
O    -3.592000000     3.158000000     8.623000000
H    -3.019000000     3.092000000     7.860000000
H    -2.994000000     3.232000000     9.367000000
O     1.090000000    -0.582000000     7.193000000
H     1.141000000    -0.246000000     6.298000000
H     1.996000000    -0.579000000     7.502000000
O     4.025000000     3.826000000     4.455000000
H     3.098000000     4.008000000     4.606000000
H     4.174000000     2.978000000     4.873000000
O    -1.465000000     0.806000000     7.576000000
H    -1.941000000     1.443000000     7.043000000
H    -0.698000000     0.579000000     7.051000000
O    -3.739000000     5.644000000     4.348000000
H    -4.301000000     5.206000000     3.709000000
H    -4.178000000     6.478000000     4.521000000
O     6.209000000     0.912000000     5.171000000
H     5.305000000     1.211000000     5.073000000
H     6.630000000     1.593000000     5.696000000
O    -0.278000000     4.833000000     3.491000000
H    -0.337000000     4.782000000     4.445000000
H    -0.103000000     3.933000000     3.214000000
O     0.560000000     1.723000000     9.914000000
H    -0.222000000     1.956000000    10.414000000
H     0.313000000     1.868000000     9.001000000
