215
-1409.35624
C    -4.294000000    -0.393000000     2.638000000
H    -3.859000000    -1.388000000     2.698000000
C    -4.442000000     0.290000000     1.393000000
C    -4.989000000     1.586000000     1.423000000
H    -5.191000000     2.234000000     0.574000000
C    -4.103000000    -0.361000000     0.010000000
O    -4.376000000    -1.725000000    -0.116000000
H    -3.024000000    -0.322000000    -0.197000000
O    -4.734000000     0.339000000    -1.055000000
C    -3.939000000     0.552000000    -2.149000000
C    -3.488000000     1.846000000    -2.187000000
H    -3.665000000     2.472000000    -1.316000000
C    -2.633000000     2.208000000    -3.236000000
O    -2.008000000     3.497000000    -3.097000000
C    -2.314000000     1.299000000    -4.225000000
C    -1.258000000     1.682000000    -5.214000000
H    -1.503000000     1.107000000    -6.110000000
C     0.140000000     1.336000000    -4.699000000
C     0.600000000    -0.031000000    -4.817000000
H    -0.090000000    -0.723000000    -5.292000000
H    -1.235000000     2.689000000    -5.635000000
C    -2.920000000     0.033000000    -4.240000000
H    -2.816000000    -0.644000000    -5.085000000
C    -3.670000000    -0.419000000    -3.141000000
C    -4.105000000    -1.861000000    -3.030000000
H    -3.988000000    -2.335000000    -4.007000000
H    -5.147000000    -1.810000000    -2.708000000
C    -3.331000000    -2.742000000    -2.080000000
C    -2.398000000    -3.692000000    -2.533000000
H    -2.216000000    -3.788000000    -3.600000000
C    -3.422000000    -2.597000000    -0.693000000
C    -2.653000000    -3.377000000     0.145000000
H    -2.773000000    -3.362000000     1.225000000
C    -1.674000000    -4.257000000    -0.307000000
O    -0.845000000    -4.814000000     0.552000000
C     0.611000000    -4.343000000     0.705000000
C     1.054000000    -4.181000000     2.112000000
C     2.415000000    -4.260000000     2.419000000
H     3.079000000    -4.708000000     1.685000000
C     0.082000000    -3.740000000     2.964000000
H    -0.908000000    -3.559000000     2.551000000
O     1.445000000    -5.039000000    -0.235000000
H     0.596000000    -3.310000000     0.329000000
C    -1.597000000    -4.450000000    -1.694000000
C    -0.560000000    -5.258000000    -2.399000000
H    -0.957000000    -5.531000000    -3.379000000
H    -0.418000000    -6.211000000    -1.885000000
C     0.728000000    -4.429000000    -2.437000000
C     1.056000000    -3.761000000    -3.635000000
H     0.319000000    -3.776000000    -4.434000000
C     1.632000000    -4.381000000    -1.337000000
C     2.693000000    -3.585000000    -1.476000000
H     3.374000000    -3.442000000    -0.641000000
C     2.957000000    -2.733000000    -2.548000000
O     3.930000000    -1.854000000    -2.425000000
C     3.619000000    -0.541000000    -2.017000000
C     4.540000000    -0.065000000    -0.930000000
C     5.554000000    -0.791000000    -0.362000000
H     5.789000000    -1.760000000    -0.796000000
C     4.193000000     1.160000000    -0.317000000
H     3.441000000     1.871000000    -0.650000000
O     3.860000000     0.293000000    -3.162000000
H     2.570000000    -0.478000000    -1.691000000
C     2.168000000    -2.837000000    -3.687000000
C     2.383000000    -1.770000000    -4.807000000
H     1.921000000    -2.077000000    -5.747000000
H     3.442000000    -1.691000000    -5.061000000
C     1.872000000    -0.359000000    -4.414000000
C     2.630000000     0.638000000    -3.753000000
C     2.120000000     1.959000000    -3.544000000
H     2.735000000     2.631000000    -2.951000000
C     0.888000000     2.284000000    -3.956000000
O     0.361000000     3.529000000    -3.545000000
C    -0.691000000     3.590000000    -2.537000000
H    -0.634000000     2.640000000    -1.984000000
C    -0.553000000     4.646000000    -1.537000000
C    -1.765000000     5.185000000    -1.099000000
H    -2.675000000     4.952000000    -1.647000000
C     0.622000000     4.992000000    -0.806000000
H     1.621000000     4.669000000    -1.086000000
C     0.551000000     5.914000000     0.274000000
O     1.725000000     6.473000000     0.815000000
C    -0.708000000     6.491000000     0.624000000
H    -0.716000000     7.163000000     1.478000000
C    -1.879000000     6.064000000    -0.029000000
O    -3.101000000     6.691000000     0.346000000
C    -4.247000000     6.079000000     0.698000000
C    -4.313000000     4.967000000     1.498000000
H    -3.448000000     4.450000000     1.905000000
C    -5.486000000     6.551000000     0.268000000
H    -5.538000000     7.329000000    -0.489000000
C    -6.672000000     5.963000000     0.593000000
H    -7.588000000     6.371000000     0.173000000
C    -6.688000000     4.845000000     1.311000000
H    -7.617000000     4.322000000     1.523000000
C    -5.536000000     4.359000000     1.868000000
O    -5.589000000     3.453000000     2.792000000
C    -5.185000000     2.139000000     2.672000000
C    -5.098000000     1.423000000     3.828000000
H    -5.378000000     1.864000000     4.782000000
C    -4.590000000     0.146000000     3.839000000
O    -4.265000000    -0.449000000     5.084000000
C    -3.687000000    -1.706000000     5.082000000
C    -2.345000000    -1.798000000     5.210000000
H    -1.818000000    -0.855000000     5.329000000
C    -4.502000000    -2.803000000     4.954000000
H    -5.588000000    -2.760000000     4.985000000
C    -3.815000000    -4.018000000     4.800000000
H    -4.304000000    -4.987000000     4.745000000
C    -2.416000000    -4.158000000     4.870000000
H    -1.932000000    -5.131000000     4.857000000
C    -1.702000000    -3.033000000     5.057000000
O    -0.350000000    -3.171000000     5.328000000
C     0.492000000    -3.441000000     4.291000000
C     1.790000000    -3.640000000     4.712000000
H     2.103000000    -3.403000000     5.726000000
C     2.757000000    -4.022000000     3.740000000
O     4.064000000    -4.074000000     4.101000000
C     5.191000000    -4.010000000     3.245000000
C     5.525000000    -2.737000000     2.633000000
H     4.861000000    -1.932000000     2.937000000
C     6.177000000    -5.012000000     3.176000000
H     6.035000000    -5.951000000     3.703000000
C     7.389000000    -4.788000000     2.482000000
H     8.194000000    -5.518000000     2.537000000
C     7.645000000    -3.593000000     1.863000000
H     8.582000000    -3.402000000     1.346000000
C     6.721000000    -2.533000000     1.902000000
O     7.064000000    -1.305000000     1.368000000
C     6.145000000    -0.446000000     0.844000000
C     5.832000000     0.712000000     1.458000000
H     6.336000000     1.028000000     2.367000000
C     4.907000000     1.582000000     0.847000000
O     4.659000000     2.811000000     1.417000000
C     4.395000000     3.996000000     0.861000000
C     5.207000000     4.483000000    -0.159000000
H     6.041000000     3.928000000    -0.581000000
C     4.840000000     5.653000000    -0.867000000
H     5.485000000     5.906000000    -1.704000000
C     3.809000000     6.430000000    -0.358000000
H     3.571000000     7.284000000    -0.988000000
C     2.986000000     5.909000000     0.635000000
C     3.272000000     4.784000000     1.313000000
H     2.514000000     4.401000000     1.992000000
C     1.326000000     0.004000000     1.778000000
H     2.098000000    -0.481000000     2.370000000
C     1.105000000    -0.566000000     0.581000000
H     1.648000000    -1.438000000     0.227000000
C     0.192000000     0.003000000    -0.296000000
H    -0.074000000    -0.498000000    -1.307000000
C    -0.532000000     1.125000000     0.228000000
H    -1.315000000     1.607000000    -0.354000000
C    -0.264000000     1.694000000     1.435000000
H    -0.863000000     2.521000000     1.809000000
C     0.679000000     1.135000000     2.280000000
C     0.849000000     1.555000000     3.749000000
O     0.068000000     2.431000000     4.162000000
O     1.764000000     1.107000000     4.482000000
O     3.432000000    -1.630000000     6.900000000
H     4.179000000    -1.673000000     7.497000000
H     2.899000000    -2.392000000     7.129000000
O     0.855000000     3.315000000     6.576000000
H     1.534000000     2.663000000     6.747000000
H     0.423000000     3.008000000     5.779000000
O    -2.039000000     2.874000000     7.052000000
H    -1.147000000     3.221000000     7.077000000
H    -2.299000000     2.946000000     6.134000000
O    -2.996000000     6.094000000     7.700000000
H    -3.568000000     5.466000000     7.258000000
H    -2.207000000     5.593000000     7.909000000
O    -2.536000000     3.294000000     4.080000000
H    -3.101000000     2.626000000     3.692000000
H    -1.701000000     2.848000000     4.224000000
O    -2.067000000     7.312000000     3.975000000
H    -2.225000000     7.885000000     4.726000000
H    -2.929000000     6.952000000     3.764000000
O     5.229000000    -0.207000000     5.529000000
H     4.907000000     0.661000000     5.284000000
H     4.452000000    -0.672000000     5.839000000
O     2.205000000     6.333000000     4.879000000
H     3.080000000     5.946000000     4.876000000
H     1.632000000     5.634000000     4.565000000
O    -1.869000000    -3.423000000     7.991000000
H    -1.513000000    -2.948000000     8.742000000
H    -1.286000000    -3.198000000     7.266000000
O     0.413000000    -0.284000000     6.788000000
H     0.720000000     0.391000000     6.183000000
H     0.941000000    -1.054000000     6.575000000
O     6.746000000     2.955000000     5.246000000
H     6.941000000     2.022000000     5.159000000
H     5.792000000     3.006000000     5.195000000
O    -2.172000000     0.337000000     8.155000000
H    -1.459000000     0.364000000     7.516000000
H    -2.573000000     1.204000000     8.103000000
O     4.222000000     2.259000000     4.190000000
H     4.281000000     2.461000000     3.256000000
H     3.334000000     1.923000000     4.307000000
O    -4.197000000     4.849000000     5.607000000
H    -3.520000000     4.473000000     5.044000000
H    -4.702000000     5.418000000     5.027000000
O     5.563000000     5.442000000     6.624000000
H     6.295000000     4.843000000     6.476000000
H     5.296000000     5.716000000     5.747000000
O     0.237000000     5.625000000     8.210000000
H     0.455000000     4.949000000     7.569000000
H     1.056000000     6.103000000     8.341000000
O     0.812000000     8.147000000     3.846000000
H     1.177000000     7.346000000     4.221000000
H    -0.071000000     7.900000000     3.568000000
O     1.329000000     2.753000000     9.916000000
H     1.709000000     1.914000000    10.177000000
H     2.037000000     3.205000000     9.458000000
O     0.138000000     5.102000000     3.638000000
H     0.269000000     4.155000000     3.612000000
H    -0.810000000     5.212000000     3.702000000
