215
-1445.65305
C    -4.669000000    -0.947000000     2.659000000
H    -4.496000000    -1.992000000     2.413000000
C    -4.880000000    -0.059000000     1.546000000
C    -5.297000000     1.309000000     1.914000000
H    -5.349000000     2.027000000     1.100000000
C    -4.513000000    -0.477000000     0.164000000
O    -4.722000000    -1.916000000    -0.014000000
H    -3.417000000    -0.422000000     0.083000000
O    -5.159000000     0.246000000    -0.858000000
C    -4.396000000     0.666000000    -1.881000000
C    -3.775000000     1.913000000    -1.894000000
H    -3.983000000     2.533000000    -1.025000000
C    -2.862000000     2.218000000    -2.874000000
O    -2.270000000     3.336000000    -2.615000000
C    -2.589000000     1.371000000    -3.882000000
C    -1.546000000     1.777000000    -4.856000000
H    -1.842000000     1.288000000    -5.787000000
C    -0.111000000     1.509000000    -4.575000000
C     0.427000000     0.308000000    -5.034000000
H    -0.161000000    -0.313000000    -5.706000000
H    -1.683000000     2.827000000    -5.123000000
C    -3.274000000     0.101000000    -3.950000000
H    -2.945000000    -0.604000000    -4.709000000
C    -4.184000000    -0.247000000    -2.933000000
C    -4.732000000    -1.679000000    -2.817000000
H    -4.960000000    -2.132000000    -3.784000000
H    -5.667000000    -1.551000000    -2.268000000
C    -3.761000000    -2.641000000    -2.082000000
C    -2.764000000    -3.281000000    -2.721000000
H    -2.721000000    -3.190000000    -3.804000000
C    -3.834000000    -2.682000000    -0.741000000
C    -2.907000000    -3.425000000     0.032000000
H    -3.018000000    -3.496000000     1.111000000
C    -1.905000000    -4.112000000    -0.619000000
O    -0.893000000    -4.641000000     0.215000000
C     0.404000000    -4.068000000     0.271000000
C     0.999000000    -4.162000000     1.687000000
C     2.339000000    -4.488000000     2.015000000
H     3.022000000    -4.652000000     1.186000000
C     0.178000000    -3.894000000     2.835000000
H    -0.856000000    -3.624000000     2.637000000
O     1.258000000    -4.733000000    -0.740000000
H     0.279000000    -2.999000000     0.044000000
C    -1.814000000    -4.099000000    -2.033000000
C    -0.675000000    -4.753000000    -2.831000000
H    -1.009000000    -5.035000000    -3.832000000
H    -0.493000000    -5.754000000    -2.434000000
C     0.578000000    -4.014000000    -2.963000000
C     0.966000000    -3.157000000    -4.009000000
H     0.391000000    -3.080000000    -4.928000000
C     1.574000000    -4.098000000    -1.948000000
C     2.697000000    -3.287000000    -1.869000000
H     3.291000000    -3.184000000    -0.964000000
C     2.972000000    -2.494000000    -2.926000000
O     4.117000000    -1.727000000    -2.682000000
C     3.866000000    -0.316000000    -2.290000000
C     4.900000000     0.239000000    -1.285000000
C     5.234000000    -0.535000000    -0.155000000
H     4.808000000    -1.531000000    -0.067000000
C     5.297000000     1.583000000    -1.433000000
H     4.819000000     2.221000000    -2.171000000
O     3.825000000     0.478000000    -3.502000000
H     2.925000000    -0.241000000    -1.725000000
C     2.134000000    -2.402000000    -4.018000000
C     2.278000000    -1.365000000    -5.176000000
H     1.752000000    -1.685000000    -6.078000000
H     3.300000000    -1.201000000    -5.524000000
C     1.780000000     0.029000000    -4.753000000
C     2.569000000     0.871000000    -4.000000000
C     2.001000000     2.085000000    -3.555000000
H     2.550000000     2.716000000    -2.861000000
C     0.678000000     2.393000000    -3.792000000
O     0.173000000     3.529000000    -3.184000000
C    -0.847000000     3.278000000    -2.138000000
H    -0.819000000     2.301000000    -1.632000000
C    -0.606000000     4.194000000    -0.958000000
C    -1.674000000     4.699000000    -0.180000000
H    -2.687000000     4.421000000    -0.461000000
C     0.694000000     4.506000000    -0.619000000
H     1.504000000     4.179000000    -1.266000000
C     0.936000000     5.205000000     0.563000000
O     2.210000000     5.407000000     1.011000000
C    -0.076000000     5.707000000     1.341000000
H     0.109000000     6.428000000     2.132000000
C    -1.427000000     5.441000000     0.973000000
O    -2.433000000     5.918000000     1.767000000
C    -3.819000000     5.523000000     1.821000000
C    -4.085000000     4.373000000     2.520000000
H    -3.311000000     3.700000000     2.880000000
C    -4.825000000     6.464000000     1.502000000
H    -4.533000000     7.393000000     1.018000000
C    -6.156000000     6.202000000     1.854000000
H    -6.938000000     6.923000000     1.630000000
C    -6.423000000     5.002000000     2.515000000
H    -7.433000000     4.701000000     2.784000000
C    -5.395000000     4.054000000     2.753000000
O    -5.717000000     2.962000000     3.590000000
C    -5.423000000     1.715000000     3.186000000
C    -5.059000000     0.883000000     4.234000000
H    -5.099000000     1.133000000     5.291000000
C    -4.677000000    -0.465000000     3.987000000
O    -4.219000000    -1.196000000     5.088000000
C    -3.560000000    -2.372000000     4.980000000
C    -2.164000000    -2.321000000     5.045000000
H    -1.661000000    -1.357000000     5.026000000
C    -4.302000000    -3.597000000     4.849000000
H    -5.384000000    -3.594000000     4.753000000
C    -3.596000000    -4.797000000     4.882000000
H    -4.079000000    -5.771000000     4.896000000
C    -2.244000000    -4.706000000     5.143000000
H    -1.664000000    -5.612000000     5.297000000
C    -1.498000000    -3.495000000     5.231000000
O    -0.142000000    -3.532000000     5.221000000
C     0.690000000    -3.859000000     4.121000000
C     2.006000000    -4.015000000     4.376000000
H     2.439000000    -3.964000000     5.371000000
C     2.862000000    -4.445000000     3.340000000
O     4.152000000    -4.753000000     3.604000000
C     5.215000000    -4.034000000     3.168000000
C     5.101000000    -2.630000000     2.743000000
H     4.177000000    -2.098000000     2.958000000
C     6.315000000    -4.749000000     2.883000000
H     6.405000000    -5.768000000     3.248000000
C     7.432000000    -4.147000000     2.278000000
H     8.334000000    -4.751000000     2.215000000
C     7.368000000    -2.778000000     1.945000000
H     8.276000000    -2.383000000     1.497000000
C     6.238000000    -2.006000000     2.149000000
O     6.188000000    -0.561000000     2.058000000
C     6.047000000     0.063000000     0.844000000
C     6.395000000     1.371000000     0.769000000
H     6.834000000     1.801000000     1.666000000
C     6.046000000     2.106000000    -0.366000000
O     6.351000000     3.451000000    -0.399000000
C     5.319000000     4.386000000    -0.556000000
C     5.518000000     5.439000000    -1.490000000
H     6.381000000     5.491000000    -2.150000000
C     4.451000000     6.321000000    -1.648000000
H     4.433000000     7.068000000    -2.437000000
C     3.346000000     6.273000000    -0.827000000
H     2.563000000     7.028000000    -0.807000000
C     3.204000000     5.281000000     0.135000000
C     4.165000000     4.285000000     0.272000000
H     3.992000000     3.468000000     0.968000000
C     1.196000000    -0.292000000     2.509000000
H     2.090000000    -0.796000000     2.868000000
C     0.874000000    -0.501000000     1.188000000
H     1.498000000    -1.164000000     0.594000000
C    -0.218000000     0.068000000     0.593000000
H    -0.433000000    -0.249000000    -0.426000000
C    -0.988000000     1.004000000     1.285000000
H    -1.814000000     1.518000000     0.800000000
C    -0.775000000     1.143000000     2.631000000
H    -1.339000000     1.801000000     3.287000000
C     0.350000000     0.519000000     3.270000000
C     0.685000000     0.755000000     4.746000000
O    -0.119000000     1.313000000     5.500000000
O     1.739000000     0.417000000     5.293000000
O     0.118000000     4.351000000    10.146000000
H     0.870000000     4.559000000    10.700000000
H     0.448000000     3.695000000     9.531000000
O     3.920000000    -2.723000000     7.398000000
H     3.308000000    -2.321000000     8.014000000
H     4.026000000    -3.620000000     7.716000000
O     3.180000000     2.576000000     6.081000000
H     2.727000000     3.276000000     5.611000000
H     2.742000000     1.774000000     5.795000000
O     1.682000000    -0.726000000     9.445000000
H     1.007000000    -0.095000000     9.697000000
H     1.371000000    -1.092000000     8.617000000
O    -2.090000000     5.128000000     6.913000000
H    -2.085000000     4.426000000     6.262000000
H    -2.573000000     4.763000000     7.654000000
O    -1.022000000    -0.061000000     7.887000000
H    -0.308000000    -0.104000000     7.251000000
H    -1.650000000     0.548000000     7.501000000
O     0.751000000     4.565000000     5.484000000
H     0.745000000     4.994000000     6.339000000
H    -0.019000000     3.996000000     5.496000000
O    -1.029000000    -2.459000000     9.234000000
H    -0.241000000    -1.997000000     9.519000000
H    -1.323000000    -1.975000000     8.461000000
O    -0.243000000     1.204000000    10.888000000
H    -0.229000000     1.811000000    10.148000000
H    -1.121000000     0.824000000    10.870000000
O     1.578000000     6.227000000     7.651000000
H     2.126000000     6.939000000     7.982000000
H     0.706000000     6.614000000     7.570000000
O     4.198000000    -0.775000000     5.451000000
H     3.284000000    -0.512000000     5.346000000
H     4.153000000    -1.652000000     5.832000000
O     1.348000000    -1.529000000     6.989000000
H     1.600000000    -0.783000000     6.445000000
H     0.824000000    -2.083000000     6.409000000
O     3.693000000     4.357000000     8.443000000
H     3.390000000     3.596000000     7.948000000
H     3.120000000     5.070000000     8.159000000
O     6.028000000     1.636000000     5.896000000
H     5.156000000     1.864000000     5.574000000
H     5.932000000     0.747000000     6.238000000
O    -2.200000000     2.804000000     5.429000000
H    -2.556000000     2.494000000     6.262000000
H    -1.439000000     2.245000000     5.271000000
O     1.095000000     2.361000000     8.214000000
H     0.564000000     2.258000000     7.424000000
H     1.992000000     2.200000000     7.923000000
O     2.097000000     6.467000000     4.378000000
H     2.872000000     6.529000000     4.936000000
H     1.629000000     5.698000000     4.702000000
O     3.714000000     1.329000000    10.177000000
H     3.009000000     0.683000000    10.230000000
H     4.457000000     0.844000000     9.817000000
O    -3.289000000     1.826000000     7.929000000
H    -2.975000000     2.534000000     8.491000000
H    -4.071000000     2.183000000     7.508000000
