215
-1456.44981
C    -4.204000000    -1.271000000     2.534000000
H    -3.876000000    -2.298000000     2.394000000
C    -4.438000000    -0.356000000     1.479000000
C    -4.834000000     0.975000000     1.750000000
H    -4.936000000     1.695000000     0.942000000
C    -4.175000000    -0.858000000     0.044000000
O    -4.458000000    -2.288000000    -0.144000000
H    -3.101000000    -0.664000000    -0.096000000
O    -4.867000000    -0.039000000    -0.878000000
C    -4.074000000     0.432000000    -1.923000000
C    -3.682000000     1.781000000    -1.908000000
H    -4.219000000     2.436000000    -1.226000000
C    -2.861000000     2.245000000    -2.956000000
O    -2.299000000     3.517000000    -2.847000000
C    -2.431000000     1.404000000    -4.015000000
C    -1.388000000     1.799000000    -5.036000000
H    -1.567000000     1.130000000    -5.880000000
C    -0.025000000     1.598000000    -4.554000000
C     0.598000000     0.414000000    -4.893000000
H     0.020000000    -0.334000000    -5.428000000
H    -1.531000000     2.802000000    -5.444000000
C    -2.941000000     0.113000000    -3.997000000
H    -2.667000000    -0.603000000    -4.768000000
C    -3.790000000    -0.359000000    -3.069000000
C    -4.224000000    -1.821000000    -3.121000000
H    -4.222000000    -2.177000000    -4.153000000
H    -5.229000000    -1.955000000    -2.715000000
C    -3.372000000    -2.683000000    -2.283000000
C    -2.287000000    -3.353000000    -2.907000000
H    -2.136000000    -3.109000000    -3.955000000
C    -3.549000000    -2.919000000    -0.942000000
C    -2.621000000    -3.741000000    -0.200000000
H    -2.884000000    -3.918000000     0.840000000
C    -1.600000000    -4.329000000    -0.882000000
O    -0.604000000    -5.006000000    -0.168000000
C     0.634000000    -4.273000000     0.163000000
C     1.110000000    -4.416000000     1.602000000
C     2.470000000    -4.464000000     1.958000000
H     3.245000000    -4.327000000     1.208000000
C     0.164000000    -4.462000000     2.623000000
H    -0.895000000    -4.342000000     2.411000000
O     1.633000000    -4.749000000    -0.750000000
H     0.469000000    -3.208000000    -0.061000000
C    -1.363000000    -4.115000000    -2.182000000
C    -0.130000000    -4.691000000    -2.971000000
H    -0.411000000    -4.740000000    -4.024000000
H     0.080000000    -5.689000000    -2.581000000
C     1.088000000    -3.830000000    -2.903000000
C     1.293000000    -2.800000000    -3.850000000
H     0.583000000    -2.613000000    -4.652000000
C     1.994000000    -3.932000000    -1.822000000
C     3.110000000    -3.138000000    -1.737000000
H     3.771000000    -3.161000000    -0.874000000
C     3.322000000    -2.174000000    -2.723000000
O     4.294000000    -1.203000000    -2.462000000
C     3.875000000     0.079000000    -2.027000000
C     4.580000000     0.672000000    -0.821000000
C     5.113000000    -0.173000000     0.133000000
H     5.026000000    -1.255000000     0.073000000
C     4.739000000     2.065000000    -0.726000000
H     4.422000000     2.743000000    -1.514000000
O     3.818000000     0.929000000    -3.195000000
H     2.823000000    -0.094000000    -1.756000000
C     2.395000000    -2.019000000    -3.746000000
C     2.630000000    -1.027000000    -4.831000000
H     2.180000000    -1.431000000    -5.741000000
H     3.686000000    -0.916000000    -5.084000000
C     1.957000000     0.269000000    -4.522000000
C     2.602000000     1.202000000    -3.744000000
C     1.952000000     2.384000000    -3.406000000
H     2.339000000     3.098000000    -2.684000000
C     0.629000000     2.642000000    -3.834000000
O    -0.052000000     3.717000000    -3.312000000
C    -1.014000000     3.610000000    -2.218000000
H    -0.883000000     2.640000000    -1.715000000
C    -0.943000000     4.665000000    -1.091000000
C    -2.058000000     4.970000000    -0.275000000
H    -3.030000000     4.534000000    -0.493000000
C     0.353000000     5.202000000    -0.676000000
H     1.257000000     4.946000000    -1.223000000
C     0.432000000     5.973000000     0.507000000
O     1.636000000     6.348000000     0.999000000
C    -0.727000000     6.366000000     1.187000000
H    -0.617000000     7.051000000     2.024000000
C    -1.938000000     5.814000000     0.784000000
O    -3.064000000     6.094000000     1.530000000
C    -4.200000000     5.460000000     1.705000000
C    -4.273000000     4.248000000     2.396000000
H    -3.337000000     3.831000000     2.757000000
C    -5.372000000     6.050000000     1.249000000
H    -5.392000000     6.920000000     0.598000000
C    -6.599000000     5.444000000     1.455000000
H    -7.511000000     5.875000000     1.049000000
C    -6.679000000     4.232000000     2.239000000
H    -7.662000000     3.821000000     2.456000000
C    -5.501000000     3.672000000     2.682000000
O    -5.637000000     2.495000000     3.398000000
C    -5.164000000     1.267000000     3.043000000
C    -5.158000000     0.292000000     4.014000000
H    -5.589000000     0.632000000     4.952000000
C    -4.569000000    -0.948000000     3.829000000
O    -4.307000000    -1.787000000     4.878000000
C    -3.703000000    -3.006000000     4.838000000
C    -2.358000000    -3.163000000     4.567000000
H    -1.829000000    -2.258000000     4.279000000
C    -4.490000000    -4.113000000     5.123000000
H    -5.575000000    -4.055000000     5.145000000
C    -3.806000000    -5.333000000     5.419000000
H    -4.532000000    -6.064000000     5.764000000
C    -2.373000000    -5.441000000     5.432000000
H    -1.903000000    -6.396000000     5.652000000
C    -1.726000000    -4.384000000     4.884000000
O    -0.344000000    -4.403000000     4.886000000
C     0.620000000    -4.566000000     3.939000000
C     2.003000000    -4.731000000     4.297000000
H     2.260000000    -4.855000000     5.346000000
C     2.919000000    -4.571000000     3.286000000
O     4.245000000    -4.581000000     3.636000000
C     5.296000000    -3.925000000     2.940000000
C     5.162000000    -2.571000000     2.685000000
H     4.227000000    -2.108000000     2.992000000
C     6.541000000    -4.525000000     2.750000000
H     6.643000000    -5.556000000     3.079000000
C     7.564000000    -3.850000000     2.182000000
H     8.495000000    -4.371000000     1.971000000
C     7.432000000    -2.507000000     1.923000000
H     8.203000000    -1.895000000     1.462000000
C     6.275000000    -1.890000000     2.220000000
O     6.316000000    -0.546000000     2.103000000
C     5.763000000     0.331000000     1.169000000
C     5.890000000     1.720000000     1.362000000
H     6.360000000     2.132000000     2.251000000
C     5.348000000     2.588000000     0.407000000
O     5.691000000     3.925000000     0.529000000
C     4.855000000     4.927000000     0.079000000
C     5.103000000     5.623000000    -1.092000000
H     6.079000000     5.533000000    -1.563000000
C     4.262000000     6.619000000    -1.504000000
H     4.479000000     7.261000000    -2.354000000
C     3.095000000     6.905000000    -0.837000000
H     2.493000000     7.749000000    -1.163000000
C     2.791000000     6.146000000     0.301000000
C     3.655000000     5.178000000     0.782000000
H     3.384000000     4.499000000     1.587000000
C     1.310000000    -0.683000000     2.336000000
H     2.218000000    -1.006000000     2.839000000
C     1.179000000    -0.635000000     0.948000000
H     1.893000000    -1.091000000     0.267000000
C     0.051000000    -0.098000000     0.305000000
H    -0.005000000    -0.094000000    -0.790000000
C    -0.931000000     0.497000000     1.050000000
H    -1.819000000     0.929000000     0.595000000
C    -0.710000000     0.751000000     2.395000000
H    -1.563000000     1.199000000     2.900000000
C     0.290000000    -0.009000000     3.064000000
C     0.395000000     0.093000000     4.579000000
O    -0.364000000     0.797000000     5.269000000
O     1.451000000    -0.309000000     5.099000000
O     0.727000000     2.769000000     9.910000000
H     1.123000000     2.044000000     9.426000000
H     0.844000000     2.535000000    10.831000000
O     4.652000000    -2.808000000     6.891000000
H     3.812000000    -3.202000000     7.126000000
H     5.203000000    -3.551000000     6.643000000
O     2.518000000     4.702000000     4.220000000
H     1.685000000     4.286000000     3.998000000
H     2.729000000     4.365000000     5.091000000
O     1.045000000     3.271000000     6.443000000
H     0.442000000     4.014000000     6.476000000
H     0.493000000     2.525000000     6.207000000
O    -2.113000000    -0.036000000     7.196000000
H    -1.438000000     0.205000000     6.562000000
H    -2.748000000     0.679000000     7.153000000
O     0.359000000     3.653000000     3.248000000
H    -0.410000000     3.462000000     3.785000000
H     0.033000000     3.637000000     2.348000000
O    -4.960000000    -0.290000000     7.989000000
H    -4.811000000     0.493000000     7.459000000
H    -4.231000000    -0.870000000     7.768000000
O    -2.836000000    -3.249000000     7.723000000
H    -1.955000000    -2.928000000     7.532000000
H    -3.193000000    -3.490000000     6.868000000
O    -0.869000000    -0.138000000     9.689000000
H    -0.038000000    -0.119000000     9.215000000
H    -1.533000000    -0.219000000     9.005000000
O     2.337000000    -4.145000000     7.725000000
H     2.004000000    -5.028000000     7.568000000
H     1.563000000    -3.584000000     7.670000000
O     3.985000000    -0.327000000     5.361000000
H     3.038000000    -0.379000000     5.237000000
H     4.275000000    -1.239000000     5.381000000
O    -0.039000000    -2.376000000     7.566000000
H     0.270000000    -2.464000000     6.665000000
H     0.160000000    -1.470000000     7.801000000
O     3.915000000     2.412000000     7.038000000
H     3.957000000     1.908000000     6.226000000
H     3.057000000     2.835000000     7.014000000
O     6.582000000     0.625000000     4.949000000
H     6.514000000     0.257000000     4.067000000
H     5.680000000     0.842000000     5.187000000
O    -1.701000000     2.918000000     4.907000000
H    -2.317000000     2.955000000     5.639000000
H    -1.280000000     2.063000000     4.991000000
O    -1.784000000     3.264000000     9.177000000
H    -0.854000000     3.122000000     9.355000000
H    -2.111000000     3.715000000     9.955000000
O     1.346000000     0.123000000     7.931000000
H     1.311000000     0.410000000     7.018000000
H     2.270000000    -0.070000000     8.087000000
O     3.680000000    -0.986000000     9.624000000
H     3.979000000    -1.759000000    10.103000000
H     4.464000000    -0.662000000     9.180000000
O    -3.488000000     2.346000000     7.396000000
H    -2.752000000     2.520000000     7.983000000
H    -4.189000000     2.913000000     7.717000000
