215
-1474.89439
C    -3.968000000    -0.969000000     2.217000000
H    -3.396000000    -1.871000000     2.013000000
C    -4.591000000    -0.190000000     1.198000000
C    -5.244000000     1.003000000     1.495000000
H    -5.718000000     1.549000000     0.684000000
C    -4.387000000    -0.638000000    -0.257000000
O    -4.701000000    -2.049000000    -0.327000000
H    -3.318000000    -0.550000000    -0.502000000
O    -5.056000000     0.181000000    -1.273000000
C    -4.234000000     0.581000000    -2.281000000
C    -3.829000000     1.944000000    -2.267000000
H    -4.211000000     2.533000000    -1.437000000
C    -2.767000000     2.249000000    -3.138000000
O    -2.133000000     3.484000000    -2.971000000
C    -2.360000000     1.356000000    -4.175000000
C    -1.300000000     1.825000000    -5.212000000
H    -1.406000000     1.356000000    -6.192000000
C     0.152000000     1.644000000    -4.673000000
C     0.823000000     0.486000000    -5.015000000
H     0.376000000    -0.212000000    -5.718000000
H    -1.472000000     2.891000000    -5.372000000
C    -2.996000000     0.140000000    -4.265000000
H    -2.576000000    -0.575000000    -4.968000000
C    -3.886000000    -0.296000000    -3.297000000
C    -4.409000000    -1.749000000    -3.313000000
H    -4.466000000    -2.231000000    -4.291000000
H    -5.413000000    -1.831000000    -2.892000000
C    -3.506000000    -2.633000000    -2.430000000
C    -2.441000000    -3.346000000    -2.987000000
H    -2.384000000    -3.282000000    -4.071000000
C    -3.739000000    -2.782000000    -1.044000000
C    -2.858000000    -3.593000000    -0.351000000
H    -2.944000000    -3.724000000     0.724000000
C    -1.726000000    -4.139000000    -0.866000000
O    -0.803000000    -4.766000000    -0.025000000
C     0.483000000    -4.165000000     0.281000000
C     0.917000000    -4.454000000     1.703000000
C     2.234000000    -4.252000000     2.085000000
H     2.987000000    -4.081000000     1.319000000
C    -0.031000000    -4.756000000     2.698000000
H    -1.071000000    -4.854000000     2.397000000
O     1.418000000    -4.765000000    -0.629000000
H     0.436000000    -3.097000000     0.020000000
C    -1.497000000    -4.002000000    -2.252000000
C    -0.327000000    -4.605000000    -3.021000000
H    -0.664000000    -4.780000000    -4.044000000
H    -0.224000000    -5.615000000    -2.618000000
C     0.938000000    -3.829000000    -2.830000000
C     1.263000000    -2.919000000    -3.763000000
H     0.653000000    -2.826000000    -4.658000000
C     1.828000000    -3.997000000    -1.722000000
C     2.912000000    -3.196000000    -1.508000000
H     3.440000000    -3.391000000    -0.579000000
C     3.221000000    -2.208000000    -2.437000000
O     4.187000000    -1.324000000    -2.085000000
C     3.776000000     0.018000000    -1.774000000
C     4.635000000     0.511000000    -0.646000000
C     5.277000000    -0.432000000     0.211000000
H     5.298000000    -1.475000000    -0.093000000
C     4.851000000     1.931000000    -0.410000000
H     4.401000000     2.611000000    -1.128000000
O     3.830000000     0.830000000    -2.934000000
H     2.770000000    -0.014000000    -1.330000000
C     2.457000000    -2.160000000    -3.647000000
C     2.652000000    -1.169000000    -4.742000000
H     2.181000000    -1.617000000    -5.619000000
H     3.729000000    -1.155000000    -4.923000000
C     2.046000000     0.207000000    -4.449000000
C     2.637000000     1.117000000    -3.585000000
C     1.933000000     2.277000000    -3.263000000
H     2.244000000     2.792000000    -2.358000000
C     0.698000000     2.549000000    -3.730000000
O     0.143000000     3.664000000    -3.196000000
C    -0.884000000     3.459000000    -2.227000000
H    -0.769000000     2.521000000    -1.665000000
C    -0.839000000     4.550000000    -1.150000000
C    -2.035000000     4.984000000    -0.495000000
H    -3.025000000     4.634000000    -0.775000000
C     0.434000000     4.915000000    -0.619000000
H     1.319000000     4.493000000    -1.088000000
C     0.471000000     5.595000000     0.594000000
O     1.679000000     5.872000000     1.248000000
C    -0.705000000     5.932000000     1.263000000
H    -0.648000000     6.568000000     2.143000000
C    -1.963000000     5.588000000     0.738000000
O    -3.050000000     6.008000000     1.432000000
C    -4.247000000     5.354000000     1.439000000
C    -4.423000000     4.210000000     2.196000000
H    -3.573000000     3.731000000     2.675000000
C    -5.341000000     6.022000000     0.881000000
H    -5.084000000     6.916000000     0.319000000
C    -6.641000000     5.599000000     1.077000000
H    -7.386000000     6.298000000     0.707000000
C    -6.862000000     4.405000000     1.793000000
H    -7.883000000     4.032000000     1.827000000
C    -5.754000000     3.713000000     2.366000000
O    -5.951000000     2.613000000     3.120000000
C    -5.316000000     1.412000000     2.802000000
C    -4.711000000     0.684000000     3.836000000
H    -4.658000000     1.047000000     4.859000000
C    -3.996000000    -0.484000000     3.531000000
O    -3.294000000    -1.076000000     4.583000000
C    -3.135000000    -2.419000000     4.785000000
C    -1.897000000    -3.056000000     4.858000000
H    -0.966000000    -2.529000000     4.672000000
C    -4.270000000    -3.155000000     5.118000000
H    -5.272000000    -2.741000000     5.200000000
C    -4.202000000    -4.526000000     5.093000000
H    -5.156000000    -5.030000000     5.224000000
C    -2.950000000    -5.184000000     5.016000000
H    -2.876000000    -6.267000000     5.074000000
C    -1.783000000    -4.494000000     4.957000000
O    -0.515000000    -5.116000000     4.948000000
C     0.376000000    -4.904000000     3.965000000
C     1.687000000    -4.603000000     4.367000000
H     1.894000000    -4.549000000     5.433000000
C     2.642000000    -4.343000000     3.443000000
O     3.892000000    -3.941000000     3.874000000
C     4.965000000    -3.727000000     3.067000000
C     5.333000000    -2.406000000     2.725000000
H     4.667000000    -1.635000000     3.105000000
C     5.951000000    -4.692000000     2.742000000
H     5.797000000    -5.737000000     2.997000000
C     7.133000000    -4.368000000     2.017000000
H     7.853000000    -5.137000000     1.748000000
C     7.443000000    -3.064000000     1.721000000
H     8.399000000    -2.857000000     1.248000000
C     6.555000000    -2.104000000     2.169000000
O     6.906000000    -0.826000000     1.964000000
C     6.102000000     0.093000000     1.277000000
C     6.293000000     1.412000000     1.474000000
H     6.957000000     1.781000000     2.252000000
C     5.629000000     2.329000000     0.674000000
O     5.912000000     3.635000000     0.930000000
C     5.119000000     4.686000000     0.563000000
C     5.666000000     5.784000000    -0.181000000
H     6.749000000     5.827000000    -0.255000000
C     4.792000000     6.790000000    -0.573000000
H     5.149000000     7.456000000    -1.355000000
C     3.472000000     6.854000000    -0.143000000
H     2.815000000     7.701000000    -0.321000000
C     2.984000000     5.794000000     0.703000000
C     3.777000000     4.673000000     0.984000000
H     3.496000000     3.839000000     1.622000000
C     1.129000000    -0.813000000     2.196000000
H     2.049000000    -1.129000000     2.681000000
C     1.032000000    -0.721000000     0.803000000
H     1.790000000    -1.204000000     0.192000000
C    -0.126000000    -0.252000000     0.252000000
H    -0.196000000    -0.275000000    -0.868000000
C    -1.117000000     0.194000000     1.067000000
H    -2.002000000     0.639000000     0.621000000
C    -0.938000000     0.251000000     2.440000000
H    -1.685000000     0.765000000     3.040000000
C     0.131000000    -0.349000000     3.090000000
C     0.406000000    -0.337000000     4.550000000
O    -0.206000000     0.382000000     5.318000000
O     1.285000000    -1.070000000     4.978000000
O     4.363000000    -3.011000000     7.025000000
H     4.451000000    -2.755000000     7.943000000
H     4.061000000    -3.919000000     7.057000000
O     3.470000000     2.031000000     3.740000000
H     2.675000000     2.387000000     3.342000000
H     3.156000000     1.521000000     4.486000000
O     3.698000000    -1.194000000     9.476000000
H     2.765000000    -1.210000000     9.690000000
H     4.122000000    -0.890000000    10.279000000
O     1.473000000     1.838000000     6.668000000
H     0.876000000     2.563000000     6.484000000
H     1.125000000     1.106000000     6.159000000
O    -1.575000000    -0.988000000     7.217000000
H    -1.040000000    -1.774000000     7.330000000
H    -1.201000000    -0.552000000     6.451000000
O     1.152000000     3.425000000     2.872000000
H     0.365000000     3.555000000     3.403000000
H     1.075000000     4.068000000     2.168000000
O    -4.321000000    -0.619000000     7.315000000
H    -4.517000000    -0.476000000     6.389000000
H    -3.382000000    -0.446000000     7.390000000
O    -0.811000000    -4.450000000     7.764000000
H    -0.825000000    -4.703000000     6.841000000
H    -0.043000000    -3.884000000     7.846000000
O    -2.116000000     0.755000000     9.499000000
H    -2.735000000     1.460000000     9.305000000
H    -1.660000000     0.603000000     8.671000000
O     2.602000000     4.973000000     4.836000000
H     3.315000000     5.416000000     4.376000000
H     2.153000000     4.471000000     4.155000000
O     3.799000000    -0.814000000     5.470000000
H     2.924000000    -0.888000000     5.091000000
H     3.859000000    -1.548000000     6.081000000
O     0.998000000    -2.335000000     7.171000000
H     1.133000000    -1.931000000     6.314000000
H     1.864000000    -2.331000000     7.577000000
O     4.109000000     1.719000000     7.363000000
H     4.538000000     0.865000000     7.314000000
H     3.260000000     1.586000000     6.943000000
O     6.279000000    -0.202000000     4.930000000
H     6.066000000    -0.288000000     4.000000000
H     5.436000000    -0.273000000     5.376000000
O    -0.644000000     3.066000000     4.764000000
H    -1.277000000     3.303000000     5.441000000
H    -0.484000000     2.133000000     4.901000000
O     0.721000000    -0.022000000     9.154000000
H     0.336000000    -0.780000000     8.715000000
H     1.069000000     0.516000000     8.443000000
O     5.839000000     3.610000000     4.260000000
H     5.140000000     3.001000000     4.023000000
H     5.757000000     3.713000000     5.208000000
O    -2.443000000     3.984000000     6.976000000
H    -3.001000000     3.868000000     7.745000000
H    -2.971000000     4.507000000     6.373000000
O    -1.622000000    -2.017000000    10.492000000
H    -2.007000000    -2.840000000    10.192000000
H    -1.933000000    -1.364000000     9.865000000
