215
-1427.46100
C    -4.887000000    -1.002000000     2.196000000
H    -4.520000000    -1.964000000     1.848000000
C    -4.981000000    -0.083000000     1.178000000
C    -5.289000000     1.195000000     1.502000000
H    -5.159000000     2.066000000     0.865000000
C    -4.389000000    -0.463000000    -0.161000000
O    -4.570000000    -1.809000000    -0.519000000
H    -3.315000000    -0.252000000    -0.046000000
O    -4.810000000     0.407000000    -1.275000000
C    -3.986000000     0.936000000    -2.213000000
C    -3.371000000     2.157000000    -2.050000000
H    -3.610000000     2.746000000    -1.168000000
C    -2.419000000     2.575000000    -2.965000000
O    -1.782000000     3.742000000    -2.597000000
C    -2.046000000     1.827000000    -4.011000000
C    -0.944000000     2.285000000    -4.988000000
H    -1.042000000     1.820000000    -5.971000000
C     0.486000000     1.986000000    -4.581000000
C     1.078000000     0.685000000    -4.904000000
H     0.422000000     0.114000000    -5.557000000
H    -1.060000000     3.367000000    -5.079000000
C    -2.605000000     0.538000000    -4.147000000
H    -2.268000000    -0.090000000    -4.969000000
C    -3.608000000     0.089000000    -3.286000000
C    -4.251000000    -1.268000000    -3.464000000
H    -4.122000000    -1.536000000    -4.515000000
H    -5.281000000    -1.344000000    -3.111000000
C    -3.408000000    -2.331000000    -2.748000000
C    -2.322000000    -3.007000000    -3.345000000
H    -2.185000000    -2.918000000    -4.420000000
C    -3.603000000    -2.497000000    -1.317000000
C    -2.788000000    -3.364000000    -0.632000000
H    -2.993000000    -3.603000000     0.408000000
C    -1.679000000    -3.924000000    -1.205000000
O    -0.870000000    -4.585000000    -0.344000000
C     0.308000000    -4.014000000     0.013000000
C     0.585000000    -4.083000000     1.532000000
C     1.925000000    -4.287000000     1.981000000
H     2.718000000    -4.526000000     1.277000000
C    -0.451000000    -3.714000000     2.453000000
H    -1.469000000    -3.539000000     2.113000000
O     1.333000000    -4.596000000    -0.778000000
H     0.243000000    -2.947000000    -0.245000000
C    -1.540000000    -3.833000000    -2.592000000
C    -0.422000000    -4.536000000    -3.196000000
H    -0.595000000    -4.662000000    -4.267000000
H    -0.345000000    -5.556000000    -2.813000000
C     0.913000000    -3.766000000    -3.050000000
C     1.389000000    -2.916000000    -4.094000000
H     0.684000000    -2.794000000    -4.913000000
C     1.696000000    -3.873000000    -1.865000000
C     2.894000000    -3.166000000    -1.763000000
H     3.486000000    -3.374000000    -0.876000000
C     3.253000000    -2.266000000    -2.732000000
O     4.233000000    -1.418000000    -2.437000000
C     3.913000000    -0.193000000    -1.773000000
C     4.754000000     0.068000000    -0.580000000
C     5.306000000    -0.942000000     0.188000000
H     5.427000000    -1.983000000    -0.100000000
C     4.780000000     1.392000000    -0.118000000
H     4.234000000     2.162000000    -0.655000000
O     4.084000000     0.757000000    -2.764000000
H     2.865000000    -0.229000000    -1.442000000
C     2.505000000    -2.132000000    -3.893000000
C     2.927000000    -1.036000000    -4.816000000
H     2.607000000    -1.312000000    -5.823000000
H     4.016000000    -0.954000000    -4.829000000
C     2.307000000     0.334000000    -4.328000000
C     2.927000000     1.148000000    -3.340000000
C     2.360000000     2.372000000    -3.005000000
H     2.750000000     3.033000000    -2.235000000
C     1.099000000     2.750000000    -3.549000000
O     0.534000000     3.933000000    -3.055000000
C    -0.460000000     3.684000000    -1.983000000
H    -0.315000000     2.638000000    -1.677000000
C    -0.391000000     4.616000000    -0.829000000
C    -1.423000000     4.672000000     0.142000000
H    -2.332000000     4.092000000     0.002000000
C     0.818000000     5.276000000    -0.600000000
H     1.672000000     5.143000000    -1.259000000
C     0.971000000     6.055000000     0.568000000
O     2.201000000     6.664000000     0.859000000
C    -0.083000000     6.098000000     1.551000000
H     0.128000000     6.600000000     2.491000000
C    -1.245000000     5.401000000     1.297000000
O    -2.123000000     5.218000000     2.378000000
C    -3.473000000     5.147000000     2.301000000
C    -4.045000000     3.978000000     2.743000000
H    -3.440000000     3.201000000     3.204000000
C    -4.275000000     6.181000000     1.749000000
H    -3.790000000     7.086000000     1.394000000
C    -5.653000000     6.045000000     1.625000000
H    -6.300000000     6.826000000     1.233000000
C    -6.232000000     4.859000000     2.049000000
H    -7.290000000     4.656000000     1.903000000
C    -5.473000000     3.867000000     2.618000000
O    -6.163000000     2.781000000     3.065000000
C    -5.790000000     1.464000000     2.728000000
C    -5.865000000     0.494000000     3.757000000
H    -6.229000000     0.795000000     4.737000000
C    -5.418000000    -0.779000000     3.475000000
O    -5.574000000    -1.738000000     4.478000000
C    -4.752000000    -2.830000000     4.460000000
C    -3.442000000    -2.694000000     4.757000000
H    -3.104000000    -1.712000000     5.078000000
C    -5.162000000    -3.962000000     3.818000000
H    -6.182000000    -4.072000000     3.459000000
C    -4.279000000    -5.025000000     3.766000000
H    -4.477000000    -5.984000000     3.295000000
C    -2.958000000    -4.919000000     4.100000000
H    -2.208000000    -5.682000000     3.908000000
C    -2.457000000    -3.677000000     4.574000000
O    -1.167000000    -3.564000000     4.798000000
C    -0.152000000    -3.765000000     3.835000000
C     1.151000000    -4.092000000     4.236000000
H     1.328000000    -4.093000000     5.309000000
C     2.159000000    -4.345000000     3.344000000
O     3.455000000    -4.582000000     3.835000000
C     4.634000000    -4.256000000     3.215000000
C     5.069000000    -2.919000000     3.107000000
H     4.435000000    -2.082000000     3.387000000
C     5.428000000    -5.303000000     2.747000000
H     4.887000000    -6.245000000     2.782000000
C     6.645000000    -5.064000000     2.071000000
H     7.226000000    -5.880000000     1.651000000
C     7.074000000    -3.760000000     2.024000000
H     7.960000000    -3.463000000     1.468000000
C     6.283000000    -2.698000000     2.453000000
O     6.706000000    -1.485000000     2.102000000
C     5.954000000    -0.608000000     1.409000000
C     5.839000000     0.743000000     1.877000000
H     6.184000000     0.940000000     2.888000000
C     5.325000000     1.758000000     1.147000000
O     5.240000000     2.984000000     1.731000000
C     4.804000000     4.089000000     0.981000000
C     5.686000000     4.606000000     0.060000000
H     6.604000000     4.033000000    -0.037000000
C     5.391000000     5.750000000    -0.700000000
H     6.160000000     6.139000000    -1.361000000
C     4.238000000     6.463000000    -0.403000000
H     4.055000000     7.345000000    -1.011000000
C     3.373000000     5.996000000     0.592000000
C     3.586000000     4.758000000     1.200000000
H     2.941000000     4.322000000     1.958000000
C     1.972000000     0.166000000     1.910000000
H     2.880000000    -0.206000000     2.378000000
C     1.525000000    -0.419000000     0.724000000
H     2.086000000    -1.281000000     0.373000000
C     0.469000000     0.078000000     0.005000000
H     0.169000000    -0.395000000    -0.914000000
C    -0.253000000     1.197000000     0.514000000
H    -1.065000000     1.680000000    -0.024000000
C     0.126000000     1.731000000     1.775000000
H    -0.372000000     2.624000000     2.144000000
C     1.297000000     1.267000000     2.420000000
C     1.744000000     1.798000000     3.772000000
O     1.338000000     2.888000000     4.120000000
O     2.083000000     0.960000000     4.562000000
O     0.915000000     6.322000000     8.977000000
H     1.509000000     6.291000000     8.227000000
H     0.209000000     5.716000000     8.748000000
O     3.921000000    -2.808000000     7.360000000
H     3.296000000    -2.629000000     8.062000000
H     4.139000000    -3.734000000     7.463000000
O     3.279000000     3.237000000     6.120000000
H     4.125000000     2.932000000     5.791000000
H     2.661000000     3.031000000     5.418000000
O     1.173000000     0.623000000     7.819000000
H     0.404000000     0.422000000     8.353000000
H     0.937000000     0.328000000     6.940000000
O    -1.641000000     5.924000000     5.518000000
H    -1.326000000     5.048000000     5.295000000
H    -1.994000000     5.833000000     6.404000000
O    -1.662000000    -1.033000000     7.019000000
H    -0.962000000    -1.058000000     6.367000000
H    -1.245000000    -0.674000000     7.803000000
O     1.584000000     5.731000000     4.666000000
H     0.752000000     5.844000000     5.127000000
H     1.652000000     4.787000000     4.523000000
O     4.132000000    -0.240000000     5.607000000
H     3.350000000     0.201000000     5.273000000
H     3.877000000    -1.159000000     5.677000000
O     4.851000000     2.531000000     8.358000000
H     5.781000000     2.737000000     8.449000000
H     4.549000000     3.096000000     7.647000000
O     0.349000000    -0.655000000     5.381000000
H     1.010000000    -0.043000000     5.056000000
H     0.291000000    -1.327000000     4.702000000
O     3.382000000     6.029000000     7.119000000
H     3.161000000     5.123000000     6.903000000
H     4.329000000     6.082000000     6.990000000
O     5.891000000     1.965000000     5.511000000
H     6.185000000     1.921000000     6.421000000
H     5.384000000     1.163000000     5.384000000
O    -0.939000000     3.313000000     5.027000000
H    -1.415000000     2.483000000     5.044000000
H    -0.124000000     3.113000000     4.568000000
O     7.899000000     3.292000000     4.131000000
H     7.164000000     2.761000000     4.438000000
H     7.606000000     3.644000000     3.290000000
O     1.591000000     3.548000000     8.072000000
H     1.116000000     2.791000000     8.416000000
H     2.190000000     3.179000000     7.422000000
O     2.723000000     7.652000000     3.254000000
H     2.974000000     7.090000000     2.521000000
H     2.241000000     7.074000000     3.845000000
O     6.188000000    -1.538000000     6.811000000
H     5.523000000    -2.225000000     6.847000000
H     5.699000000    -0.743000000     6.597000000
O     3.614000000     0.312000000     9.323000000
H     2.807000000     0.588000000     8.888000000
H     4.272000000     0.942000000     9.030000000
O    -2.068000000     2.858000000     7.791000000
H    -1.828000000     3.761000000     8.001000000
H    -2.403000000     2.901000000     6.895000000
