215
-1429.09020
C    -4.268000000    -0.249000000     2.591000000
H    -3.997000000    -1.286000000     2.413000000
C    -4.655000000     0.602000000     1.540000000
C    -4.908000000     1.971000000     1.805000000
H    -5.151000000     2.560000000     0.925000000
C    -4.425000000     0.086000000     0.124000000
O    -4.891000000    -1.366000000    -0.003000000
H    -3.342000000     0.009000000    -0.052000000
O    -5.002000000     0.966000000    -0.841000000
C    -4.137000000     1.304000000    -1.899000000
C    -3.472000000     2.501000000    -1.939000000
H    -3.632000000     3.153000000    -1.084000000
C    -2.548000000     2.779000000    -2.890000000
O    -1.731000000     3.886000000    -2.674000000
C    -2.331000000     1.880000000    -3.920000000
C    -1.298000000     2.120000000    -5.003000000
H    -1.752000000     1.539000000    -5.809000000
C     0.117000000     1.655000000    -4.521000000
C     0.630000000     0.463000000    -5.020000000
H     0.066000000    -0.156000000    -5.712000000
H    -1.408000000     3.120000000    -5.428000000
C    -3.041000000     0.705000000    -3.945000000
H    -2.836000000    -0.056000000    -4.694000000
C    -3.961000000     0.368000000    -2.961000000
C    -4.751000000    -0.980000000    -2.918000000
H    -4.865000000    -1.238000000    -3.973000000
H    -5.696000000    -0.887000000    -2.378000000
C    -3.919000000    -2.022000000    -2.100000000
C    -2.975000000    -2.752000000    -2.819000000
H    -2.906000000    -2.546000000    -3.885000000
C    -4.099000000    -2.229000000    -0.786000000
C    -3.337000000    -3.200000000    -0.083000000
H    -3.376000000    -3.395000000     0.985000000
C    -2.416000000    -3.889000000    -0.804000000
O    -1.664000000    -4.739000000    -0.032000000
C    -0.309000000    -4.340000000     0.211000000
C     0.092000000    -4.626000000     1.659000000
C     1.401000000    -5.033000000     2.022000000
H     2.081000000    -5.358000000     1.238000000
C    -0.762000000    -4.370000000     2.706000000
H    -1.813000000    -4.257000000     2.452000000
O     0.665000000    -5.008000000    -0.737000000
H    -0.225000000    -3.246000000     0.144000000
C    -2.239000000    -3.702000000    -2.177000000
C    -1.347000000    -4.603000000    -2.950000000
H    -1.694000000    -4.600000000    -3.985000000
H    -1.378000000    -5.670000000    -2.717000000
C     0.112000000    -4.066000000    -2.955000000
C     0.605000000    -3.234000000    -3.964000000
H    -0.016000000    -3.143000000    -4.852000000
C     0.975000000    -4.324000000    -1.902000000
C     2.198000000    -3.707000000    -1.768000000
H     2.809000000    -3.912000000    -0.892000000
C     2.527000000    -2.778000000    -2.669000000
O     3.702000000    -2.078000000    -2.320000000
C     3.575000000    -0.706000000    -1.884000000
C     4.635000000    -0.452000000    -0.877000000
C     5.099000000    -1.456000000     0.000000000
H     4.860000000    -2.504000000    -0.161000000
C     5.022000000     0.880000000    -0.609000000
H     4.604000000     1.718000000    -1.161000000
O     3.723000000     0.180000000    -2.973000000
H     2.606000000    -0.433000000    -1.441000000
C     1.818000000    -2.492000000    -3.811000000
C     2.328000000    -1.515000000    -4.842000000
H     1.880000000    -1.913000000    -5.755000000
H     3.394000000    -1.643000000    -5.041000000
C     1.852000000    -0.071000000    -4.490000000
C     2.593000000     0.676000000    -3.552000000
C     2.144000000     1.936000000    -3.157000000
H     2.821000000     2.654000000    -2.701000000
C     0.883000000     2.356000000    -3.564000000
O     0.427000000     3.578000000    -3.167000000
C    -0.521000000     3.630000000    -2.021000000
H    -0.606000000     2.670000000    -1.491000000
C    -0.044000000     4.701000000    -0.943000000
C    -0.958000000     5.294000000    -0.091000000
H    -2.027000000     5.098000000    -0.119000000
C     1.266000000     4.886000000    -0.673000000
H     2.033000000     4.256000000    -1.116000000
C     1.746000000     5.771000000     0.315000000
O     3.049000000     5.856000000     0.721000000
C     0.813000000     6.432000000     1.070000000
H     1.094000000     7.018000000     1.941000000
C    -0.536000000     6.165000000     0.928000000
O    -1.441000000     6.744000000     1.743000000
C    -2.791000000     6.408000000     1.792000000
C    -3.274000000     5.247000000     2.496000000
H    -2.588000000     4.713000000     3.148000000
C    -3.669000000     7.279000000     1.170000000
H    -3.262000000     8.208000000     0.779000000
C    -5.020000000     6.976000000     1.147000000
H    -5.781000000     7.675000000     0.810000000
C    -5.484000000     5.854000000     1.824000000
H    -6.563000000     5.797000000     1.947000000
C    -4.611000000     4.986000000     2.568000000
O    -5.043000000     3.859000000     3.333000000
C    -4.701000000     2.546000000     3.073000000
C    -4.397000000     1.698000000     4.095000000
H    -4.281000000     2.104000000     5.096000000
C    -4.179000000     0.347000000     3.885000000
O    -4.009000000    -0.380000000     4.985000000
C    -3.870000000    -1.728000000     4.927000000
C    -2.562000000    -2.191000000     4.830000000
H    -1.702000000    -1.526000000     4.818000000
C    -4.931000000    -2.584000000     5.111000000
H    -5.937000000    -2.175000000     5.052000000
C    -4.665000000    -3.952000000     5.298000000
H    -5.548000000    -4.568000000     5.452000000
C    -3.334000000    -4.427000000     5.239000000
H    -3.096000000    -5.471000000     5.425000000
C    -2.328000000    -3.550000000     5.040000000
O    -1.022000000    -4.065000000     5.102000000
C    -0.247000000    -4.347000000     3.986000000
C     1.048000000    -4.587000000     4.315000000
H     1.349000000    -4.487000000     5.355000000
C     1.886000000    -5.001000000     3.350000000
O     3.215000000    -5.250000000     3.728000000
C     4.357000000    -5.005000000     2.992000000
C     4.755000000    -3.687000000     2.711000000
H     4.151000000    -2.865000000     3.087000000
C     5.169000000    -6.032000000     2.614000000
H     4.934000000    -7.028000000     2.979000000
C     6.402000000    -5.851000000     1.908000000
H     6.989000000    -6.756000000     1.773000000
C     6.757000000    -4.520000000     1.615000000
H     7.666000000    -4.374000000     1.038000000
C     6.001000000    -3.413000000     2.034000000
O     6.613000000    -2.117000000     1.871000000
C     6.098000000    -1.187000000     0.970000000
C     6.538000000     0.172000000     1.106000000
H     7.275000000     0.511000000     1.830000000
C     5.909000000     1.170000000     0.361000000
O     6.416000000     2.473000000     0.563000000
C     5.822000000     3.656000000     0.034000000
C     6.196000000     4.007000000    -1.233000000
H     6.933000000     3.531000000    -1.875000000
C     5.487000000     5.053000000    -1.870000000
H     5.803000000     5.430000000    -2.839000000
C     4.497000000     5.680000000    -1.221000000
H     3.853000000     6.411000000    -1.702000000
C     4.181000000     5.315000000     0.077000000
C     4.750000000     4.223000000     0.653000000
H     4.256000000     3.921000000     1.573000000
C     0.717000000    -0.795000000     2.541000000
H     1.321000000    -1.503000000     3.103000000
C     0.652000000    -1.030000000     1.155000000
H     1.237000000    -1.823000000     0.696000000
C    -0.206000000    -0.252000000     0.288000000
H    -0.262000000    -0.380000000    -0.767000000
C    -0.948000000     0.782000000     0.896000000
H    -1.675000000     1.380000000     0.353000000
C    -0.906000000     0.970000000     2.266000000
H    -1.486000000     1.815000000     2.629000000
C    -0.017000000     0.219000000     3.127000000
C     0.151000000     0.696000000     4.534000000
O     0.264000000     1.883000000     4.746000000
O     0.382000000    -0.150000000     5.338000000
O     1.040000000     6.742000000     5.034000000
H     1.113000000     6.333000000     5.896000000
H     0.950000000     6.007000000     4.427000000
O     1.552000000     2.655000000     1.777000000
H     1.241000000     1.751000000     1.733000000
H     1.436000000     2.992000000     0.889000000
O    -3.024000000     6.094000000     5.465000000
H    -3.980000000     6.091000000     5.504000000
H    -2.785000000     5.171000000     5.370000000
O    -5.025000000     0.146000000     7.761000000
H    -4.139000000     0.503000000     7.695000000
H    -4.951000000    -0.743000000     7.415000000
O     4.342000000     0.499000000     4.335000000
H     4.347000000     1.371000000     3.940000000
H     5.210000000     0.144000000     4.143000000
O     1.711000000     0.391000000     8.956000000
H     2.612000000     0.080000000     9.041000000
H     1.783000000     1.191000000     8.434000000
O    -2.629000000     1.516000000     7.527000000
H    -2.360000000     1.970000000     8.325000000
H    -2.003000000     0.797000000     7.438000000
O     2.845000000    -1.590000000     5.912000000
H     1.995000000    -1.156000000     5.832000000
H     3.320000000    -1.335000000     5.121000000
O    -1.350000000     5.626000000     7.909000000
H    -0.589000000     5.050000000     7.983000000
H    -1.789000000     5.340000000     7.109000000
O    -2.514000000    -1.426000000     9.686000000
H    -3.100000000    -2.080000000     9.305000000
H    -1.965000000    -1.140000000     8.956000000
O    -0.631000000    -3.915000000     8.078000000
H    -0.263000000    -3.074000000     7.808000000
H    -1.130000000    -4.213000000     7.317000000
O     1.012000000     3.570000000     7.293000000
H     1.632000000     2.999000000     6.840000000
H     0.441000000     3.901000000     6.600000000
O    -0.720000000    -0.508000000     7.677000000
H    -0.336000000    -0.511000000     6.800000000
H     0.032000000    -0.509000000     8.269000000
O     4.356000000     4.778000000     5.112000000
H     4.953000000     4.050000000     4.937000000
H     3.495000000     4.448000000     4.857000000
O     3.053000000    -2.776000000     8.324000000
H     2.822000000    -3.703000000     8.266000000
H     2.836000000    -2.421000000     7.463000000
O     1.623000000     3.974000000     4.254000000
H     1.101000000     3.200000000     4.466000000
H     2.050000000     3.755000000     3.426000000
O     2.923000000     2.013000000     5.906000000
H     2.150000000     1.802000000     5.382000000
H     3.580000000     1.373000000     5.632000000
O     4.614000000    -0.277000000     8.584000000
H     5.365000000    -0.468000000     8.022000000
H     4.020000000    -1.016000000     8.448000000
O    -1.536000000     3.673000000     5.596000000
H    -0.910000000     3.022000000     5.277000000
H    -2.185000000     3.164000000     6.081000000
