215
-1460.42014
C    -3.994000000     0.171000000     3.018000000
H    -3.634000000    -0.847000000     2.892000000
C    -4.476000000     0.858000000     1.912000000
C    -4.977000000     2.179000000     2.038000000
H    -5.553000000     2.692000000     1.271000000
C    -4.397000000     0.251000000     0.495000000
O    -4.763000000    -1.126000000     0.464000000
H    -3.357000000     0.187000000     0.143000000
O    -5.155000000     1.009000000    -0.495000000
C    -4.504000000     1.240000000    -1.682000000
C    -3.690000000     2.382000000    -1.794000000
H    -3.701000000     3.119000000    -0.995000000
C    -2.866000000     2.542000000    -2.919000000
O    -1.939000000     3.589000000    -2.833000000
C    -2.787000000     1.606000000    -3.924000000
C    -1.718000000     1.634000000    -5.010000000
H    -2.106000000     1.113000000    -5.887000000
C    -0.325000000     1.195000000    -4.645000000
C     0.150000000    -0.074000000    -4.983000000
H    -0.482000000    -0.813000000    -5.469000000
H    -1.670000000     2.656000000    -5.392000000
C    -3.627000000     0.495000000    -3.788000000
H    -3.595000000    -0.355000000    -4.464000000
C    -4.387000000     0.214000000    -2.681000000
C    -4.943000000    -1.182000000    -2.396000000
H    -5.114000000    -1.719000000    -3.331000000
H    -5.907000000    -1.156000000    -1.884000000
C    -3.976000000    -2.105000000    -1.610000000
C    -3.061000000    -2.983000000    -2.305000000
H    -2.914000000    -2.893000000    -3.379000000
C    -3.940000000    -2.002000000    -0.190000000
C    -3.193000000    -2.946000000     0.559000000
H    -3.253000000    -2.965000000     1.644000000
C    -2.317000000    -3.807000000    -0.142000000
O    -1.563000000    -4.648000000     0.624000000
C    -0.200000000    -4.229000000     0.720000000
C     0.391000000    -4.305000000     2.078000000
C     1.664000000    -4.755000000     2.347000000
H     2.333000000    -4.901000000     1.502000000
C    -0.369000000    -3.927000000     3.167000000
H    -1.368000000    -3.552000000     2.959000000
O     0.629000000    -4.983000000    -0.186000000
H    -0.160000000    -3.245000000     0.229000000
C    -2.240000000    -3.838000000    -1.558000000
C    -1.396000000    -4.832000000    -2.333000000
H    -1.693000000    -4.873000000    -3.383000000
H    -1.395000000    -5.792000000    -1.814000000
C     0.030000000    -4.271000000    -2.439000000
C     0.386000000    -3.594000000    -3.599000000
H    -0.226000000    -3.568000000    -4.497000000
C     0.933000000    -4.281000000    -1.339000000
C     2.150000000    -3.694000000    -1.496000000
H     2.896000000    -3.686000000    -0.706000000
C     2.477000000    -2.937000000    -2.621000000
O     3.701000000    -2.176000000    -2.628000000
C     3.542000000    -0.792000000    -2.152000000
C     4.585000000    -0.453000000    -1.120000000
C     5.124000000    -1.472000000    -0.290000000
H     4.680000000    -2.459000000    -0.395000000
C     5.081000000     0.805000000    -0.939000000
H     4.553000000     1.651000000    -1.371000000
O     3.515000000     0.054000000    -3.370000000
H     2.566000000    -0.638000000    -1.668000000
C     1.515000000    -2.800000000    -3.624000000
C     1.848000000    -1.906000000    -4.790000000
H     1.436000000    -2.284000000    -5.728000000
H     2.920000000    -2.044000000    -4.943000000
C     1.410000000    -0.491000000    -4.541000000
C     2.264000000     0.427000000    -3.892000000
C     1.785000000     1.644000000    -3.540000000
H     2.387000000     2.344000000    -2.966000000
C     0.540000000     2.047000000    -3.957000000
O     0.208000000     3.286000000    -3.530000000
C    -0.590000000     3.343000000    -2.399000000
H    -0.557000000     2.349000000    -1.930000000
C    -0.156000000     4.400000000    -1.386000000
C    -1.066000000     5.078000000    -0.544000000
H    -2.087000000     4.708000000    -0.563000000
C     1.202000000     4.585000000    -1.222000000
H     1.878000000     4.036000000    -1.873000000
C     1.655000000     5.505000000    -0.272000000
O     3.039000000     5.718000000    -0.005000000
C     0.757000000     6.232000000     0.528000000
H     1.149000000     6.893000000     1.297000000
C    -0.637000000     5.939000000     0.402000000
O    -1.532000000     6.476000000     1.341000000
C    -2.900000000     6.282000000     1.299000000
C    -3.372000000     5.269000000     2.130000000
H    -2.716000000     4.615000000     2.700000000
C    -3.750000000     7.210000000     0.698000000
H    -3.350000000     7.996000000     0.063000000
C    -5.040000000     7.254000000     1.235000000
H    -5.689000000     8.075000000     0.943000000
C    -5.565000000     6.140000000     1.940000000
H    -6.595000000     6.112000000     2.287000000
C    -4.766000000     5.130000000     2.363000000
O    -5.213000000     4.167000000     3.282000000
C    -4.829000000     2.879000000     3.201000000
C    -4.467000000     2.134000000     4.327000000
H    -4.402000000     2.666000000     5.273000000
C    -4.100000000     0.778000000     4.276000000
O    -3.913000000     0.079000000     5.505000000
C    -3.609000000    -1.278000000     5.457000000
C    -2.322000000    -1.672000000     5.503000000
H    -1.591000000    -0.870000000     5.549000000
C    -4.636000000    -2.229000000     5.213000000
H    -5.677000000    -1.916000000     5.211000000
C    -4.175000000    -3.596000000     5.011000000
H    -4.928000000    -4.361000000     4.845000000
C    -2.883000000    -3.974000000     5.215000000
H    -2.603000000    -5.024000000     5.192000000
C    -1.923000000    -3.011000000     5.473000000
O    -0.565000000    -3.356000000     5.592000000
C     0.137000000    -3.817000000     4.462000000
C     1.489000000    -4.226000000     4.610000000
H     1.784000000    -4.072000000     5.645000000
C     2.253000000    -4.768000000     3.600000000
O     3.588000000    -5.065000000     3.747000000
C     4.658000000    -4.853000000     2.852000000
C     5.036000000    -3.534000000     2.531000000
H     4.584000000    -2.685000000     3.038000000
C     5.247000000    -5.960000000     2.236000000
H     4.843000000    -6.905000000     2.590000000
C     6.468000000    -5.767000000     1.572000000
H     6.943000000    -6.654000000     1.161000000
C     6.894000000    -4.474000000     1.298000000
H     7.858000000    -4.258000000     0.844000000
C     6.087000000    -3.407000000     1.632000000
O     6.639000000    -2.136000000     1.391000000
C     6.166000000    -1.124000000     0.610000000
C     6.767000000     0.136000000     0.671000000
H     7.566000000     0.270000000     1.396000000
C     6.120000000     1.105000000    -0.066000000
O     6.396000000     2.405000000     0.238000000
C     5.895000000     3.501000000    -0.453000000
C     6.472000000     3.832000000    -1.683000000
H     7.468000000     3.484000000    -1.944000000
C     5.860000000     4.920000000    -2.366000000
H     6.343000000     5.191000000    -3.302000000
C     4.688000000     5.568000000    -1.897000000
H     4.298000000     6.467000000    -2.366000000
C     4.109000000     5.146000000    -0.665000000
C     4.780000000     4.135000000     0.080000000
H     4.270000000     3.790000000     0.976000000
C     0.561000000    -0.183000000     2.513000000
H     1.158000000    -0.777000000     3.200000000
C     0.318000000    -0.599000000     1.184000000
H     1.002000000    -1.332000000     0.765000000
C    -0.571000000     0.068000000     0.324000000
H    -0.713000000    -0.179000000    -0.809000000
C    -1.097000000     1.265000000     0.798000000
H    -1.775000000     1.836000000     0.169000000
C    -0.974000000     1.615000000     2.076000000
H    -1.499000000     2.522000000     2.364000000
C    -0.141000000     0.890000000     3.004000000
C    -0.054000000     1.244000000     4.492000000
O    -0.428000000     2.326000000     4.842000000
O     0.340000000     0.412000000     5.314000000
O     0.776000000     6.975000000     4.229000000
H    -0.148000000     7.014000000     4.479000000
H     0.950000000     6.043000000     4.103000000
O     1.920000000     2.275000000     1.169000000
H     1.086000000     1.813000000     1.248000000
H     1.757000000     2.954000000     0.515000000
O    -1.877000000     7.073000000     4.498000000
H    -2.677000000     7.413000000     4.898000000
H    -1.974000000     6.122000000     4.539000000
O    -5.048000000    -0.044000000     8.114000000
H    -4.713000000    -0.222000000     7.235000000
H    -5.426000000    -0.875000000     8.399000000
O     4.227000000    -1.039000000     4.997000000
H     5.123000000    -0.768000000     5.198000000
H     4.002000000    -0.554000000     4.203000000
O     2.308000000    -0.790000000     9.455000000
H     3.226000000    -0.659000000     9.692000000
H     2.242000000    -0.460000000     8.559000000
O     3.857000000     3.112000000     8.939000000
H     3.482000000     2.482000000     8.323000000
H     3.117000000     3.388000000     9.480000000
O    -0.760000000     1.557000000     8.000000000
H    -0.807000000     0.802000000     8.586000000
H    -0.796000000     1.181000000     7.121000000
O     2.073000000    -1.096000000     6.631000000
H     1.355000000    -0.738000000     6.109000000
H     2.844000000    -1.006000000     6.072000000
O     4.073000000     5.901000000     3.425000000
H     3.234000000     5.461000000     3.565000000
H     3.863000000     6.834000000     3.462000000
O    -0.264000000     6.548000000     6.893000000
H    -0.107000000     5.604000000     6.926000000
H    -0.945000000     6.654000000     6.229000000
O    -3.115000000     3.179000000     7.936000000
H    -2.171000000     3.044000000     7.847000000
H    -3.376000000     2.585000000     8.639000000
O     0.358000000     3.947000000     7.267000000
H     0.993000000     3.894000000     7.981000000
H     0.139000000     3.036000000     7.073000000
O     3.908000000     2.846000000     4.566000000
H     3.334000000     3.588000000     4.756000000
H     3.415000000     2.316000000     3.940000000
O     0.612000000    -2.797000000     8.276000000
H     0.347000000    -2.694000000     7.362000000
H     1.296000000    -2.140000000     8.402000000
O     3.893000000     0.733000000     2.678000000
H     4.715000000     0.671000000     2.191000000
H     3.275000000     1.117000000     2.056000000
O     1.578000000     4.463000000     4.761000000
H     1.025000000     3.844000000     4.285000000
H     1.311000000     4.370000000     5.675000000
O     2.520000000     1.762000000     6.885000000
H     1.887000000     1.057000000     6.750000000
H     2.960000000     1.854000000     6.040000000
O    -1.940000000     4.323000000     5.238000000
H    -1.275000000     3.659000000     5.054000000
H    -2.144000000     4.207000000     6.166000000
