215
-1458.34502
C    -4.262000000    -0.704000000     2.443000000
H    -4.215000000    -1.771000000     2.241000000
C    -4.321000000     0.184000000     1.389000000
C    -4.383000000     1.597000000     1.579000000
H    -4.309000000     2.336000000     0.785000000
C    -4.157000000    -0.317000000     0.013000000
O    -4.748000000    -1.575000000    -0.241000000
H    -3.071000000    -0.372000000    -0.152000000
O    -4.723000000     0.607000000    -0.955000000
C    -3.947000000     0.964000000    -1.978000000
C    -3.352000000     2.165000000    -1.968000000
H    -3.542000000     2.794000000    -1.102000000
C    -2.380000000     2.519000000    -2.961000000
O    -1.811000000     3.752000000    -2.739000000
C    -2.038000000     1.701000000    -4.001000000
C    -1.017000000     2.094000000    -5.077000000
H    -1.129000000     1.533000000    -6.007000000
C     0.388000000     1.681000000    -4.612000000
C     0.955000000     0.415000000    -4.942000000
H     0.289000000    -0.259000000    -5.474000000
H    -0.986000000     3.149000000    -5.355000000
C    -2.694000000     0.421000000    -3.945000000
H    -2.526000000    -0.355000000    -4.688000000
C    -3.669000000     0.080000000    -3.007000000
C    -4.371000000    -1.275000000    -3.081000000
H    -4.436000000    -1.588000000    -4.126000000
H    -5.436000000    -1.184000000    -2.858000000
C    -3.672000000    -2.333000000    -2.275000000
C    -2.706000000    -3.079000000    -2.896000000
H    -2.394000000    -2.990000000    -3.933000000
C    -3.995000000    -2.531000000    -0.966000000
C    -3.236000000    -3.403000000    -0.215000000
H    -3.360000000    -3.495000000     0.861000000
C    -2.215000000    -4.147000000    -0.803000000
O    -1.402000000    -4.942000000    -0.027000000
C    -0.042000000    -4.443000000     0.306000000
C     0.288000000    -4.736000000     1.802000000
C     1.589000000    -4.619000000     2.314000000
H     2.398000000    -4.473000000     1.602000000
C    -0.777000000    -4.819000000     2.720000000
H    -1.801000000    -5.001000000     2.404000000
O     1.024000000    -5.056000000    -0.607000000
H     0.058000000    -3.371000000     0.077000000
C    -1.922000000    -3.959000000    -2.149000000
C    -0.702000000    -4.694000000    -2.911000000
H    -0.985000000    -4.780000000    -3.962000000
H    -0.583000000    -5.651000000    -2.400000000
C     0.686000000    -4.011000000    -2.732000000
C     1.077000000    -3.080000000    -3.697000000
H     0.572000000    -2.880000000    -4.638000000
C     1.520000000    -4.291000000    -1.616000000
C     2.685000000    -3.592000000    -1.463000000
H     3.292000000    -3.787000000    -0.583000000
C     3.067000000    -2.662000000    -2.443000000
O     4.157000000    -1.854000000    -2.218000000
C     3.856000000    -0.470000000    -1.812000000
C     4.593000000     0.059000000    -0.539000000
C     4.886000000    -0.857000000     0.460000000
H     4.713000000    -1.929000000     0.487000000
C     4.931000000     1.406000000    -0.406000000
H     4.672000000     2.123000000    -1.181000000
O     3.990000000     0.553000000    -2.830000000
H     2.806000000    -0.580000000    -1.505000000
C     2.269000000    -2.389000000    -3.541000000
C     2.654000000    -1.371000000    -4.601000000
H     2.311000000    -1.709000000    -5.582000000
H     3.745000000    -1.365000000    -4.659000000
C     2.168000000     0.012000000    -4.333000000
C     2.852000000     0.921000000    -3.516000000
C     2.366000000     2.220000000    -3.314000000
H     2.942000000     2.850000000    -2.642000000
C     1.100000000     2.550000000    -3.769000000
O     0.470000000     3.717000000    -3.272000000
C    -0.454000000     3.747000000    -2.243000000
H    -0.338000000     2.772000000    -1.747000000
C    -0.123000000     4.780000000    -1.186000000
C    -1.212000000     5.242000000    -0.370000000
H    -2.216000000     4.829000000    -0.421000000
C     1.191000000     5.236000000    -1.028000000
H     1.957000000     4.880000000    -1.712000000
C     1.466000000     6.227000000    -0.083000000
O     2.691000000     6.781000000     0.028000000
C     0.395000000     6.759000000     0.634000000
H     0.563000000     7.597000000     1.306000000
C    -0.887000000     6.231000000     0.547000000
O    -1.810000000     6.865000000     1.301000000
C    -3.082000000     6.222000000     1.404000000
C    -3.296000000     5.142000000     2.257000000
H    -2.484000000     4.734000000     2.853000000
C    -4.186000000     6.736000000     0.735000000
H    -4.066000000     7.660000000     0.176000000
C    -5.467000000     6.113000000     0.742000000
H    -6.257000000     6.554000000     0.139000000
C    -5.541000000     4.902000000     1.520000000
H    -6.486000000     4.373000000     1.612000000
C    -4.479000000     4.409000000     2.264000000
O    -4.629000000     3.409000000     3.158000000
C    -4.498000000     2.095000000     2.889000000
C    -4.533000000     1.148000000     3.936000000
H    -4.616000000     1.481000000     4.968000000
C    -4.356000000    -0.267000000     3.758000000
O    -4.328000000    -1.081000000     4.854000000
C    -4.166000000    -2.484000000     4.756000000
C    -2.950000000    -3.169000000     4.716000000
H    -2.041000000    -2.575000000     4.765000000
C    -5.298000000    -3.263000000     4.874000000
H    -6.239000000    -2.731000000     4.993000000
C    -5.271000000    -4.666000000     4.986000000
H    -6.079000000    -5.363000000     5.193000000
C    -4.017000000    -5.287000000     4.972000000
H    -3.947000000    -6.355000000     5.162000000
C    -2.863000000    -4.534000000     4.786000000
O    -1.688000000    -5.215000000     4.835000000
C    -0.624000000    -4.885000000     4.054000000
C     0.717000000    -4.869000000     4.546000000
H     0.839000000    -5.038000000     5.613000000
C     1.806000000    -4.724000000     3.652000000
O     3.060000000    -4.908000000     4.047000000
C     4.210000000    -4.407000000     3.437000000
C     4.412000000    -3.035000000     3.406000000
H     3.610000000    -2.374000000     3.725000000
C     5.194000000    -5.300000000     3.002000000
H     5.056000000    -6.352000000     3.240000000
C     6.331000000    -4.799000000     2.355000000
H     7.056000000    -5.447000000     1.869000000
C     6.419000000    -3.430000000     2.226000000
H     7.266000000    -3.130000000     1.616000000
C     5.464000000    -2.502000000     2.723000000
O     5.607000000    -1.150000000     2.659000000
C     5.414000000    -0.331000000     1.621000000
C     5.742000000     1.018000000     1.775000000
H     6.062000000     1.325000000     2.767000000
C     5.572000000     1.916000000     0.729000000
O     5.856000000     3.236000000     0.945000000
C     5.320000000     4.232000000     0.149000000
C     6.114000000     4.624000000    -0.902000000
H     7.058000000     4.104000000    -1.040000000
C     5.714000000     5.672000000    -1.771000000
H     6.268000000     6.039000000    -2.630000000
C     4.560000000     6.327000000    -1.501000000
H     4.245000000     7.150000000    -2.137000000
C     3.798000000     5.981000000    -0.351000000
C     4.097000000     4.868000000     0.420000000
H     3.395000000     4.611000000     1.210000000
C     0.626000000    -0.914000000     2.814000000
H     1.273000000    -1.570000000     3.392000000
C     0.732000000    -1.056000000     1.453000000
H     1.374000000    -1.800000000     0.990000000
C    -0.040000000    -0.260000000     0.556000000
H     0.111000000    -0.318000000    -0.579000000
C    -0.819000000     0.708000000     1.112000000
H    -1.455000000     1.230000000     0.402000000
C    -0.874000000     0.800000000     2.510000000
H    -1.470000000     1.620000000     2.902000000
C    -0.189000000     0.004000000     3.434000000
C    -0.229000000     0.286000000     4.944000000
O    -0.599000000     1.455000000     5.237000000
O     0.110000000    -0.560000000     5.773000000
O     2.244000000     2.706000000     3.154000000
H     1.614000000     2.031000000     2.901000000
H     2.779000000     2.293000000     3.832000000
O     3.109000000    -1.787000000     8.718000000
H     3.121000000    -2.691000000     9.032000000
H     3.939000000    -1.417000000     9.020000000
O     1.408000000     0.454000000     8.294000000
H     1.999000000    -0.267000000     8.508000000
H     1.039000000     0.216000000     7.443000000
O    -1.129000000     1.553000000     7.760000000
H    -1.079000000     1.674000000     6.812000000
H    -0.239000000     1.315000000     8.019000000
O     5.760000000     3.686000000     4.291000000
H     5.476000000     4.593000000     4.406000000
H     4.962000000     3.170000000     4.401000000
O    -6.037000000     0.026000000     7.168000000
H    -5.237000000     0.318000000     7.605000000
H    -5.844000000    -0.869000000     6.888000000
O    -1.222000000    -2.233000000     7.445000000
H    -0.648000000    -2.982000000     7.287000000
H    -0.983000000    -1.600000000     6.767000000
O     0.710000000     3.709000000     5.738000000
H     0.396000000     3.887000000     6.625000000
H     0.304000000     2.874000000     5.503000000
O     0.280000000     4.708000000     3.149000000
H     0.624000000     4.733000000     4.042000000
H     0.916000000     4.182000000     2.663000000
O     3.765000000     1.388000000     5.185000000
H     3.278000000     0.572000000     5.067000000
H     4.338000000     1.218000000     5.933000000
O     0.538000000    -0.894000000    10.671000000
H     0.665000000    -0.312000000     9.921000000
H     0.784000000    -0.365000000    11.429000000
O     2.564000000    -1.273000000     5.912000000
H     1.620000000    -1.253000000     5.758000000
H     2.652000000    -1.524000000     6.831000000
O    -2.663000000     3.035000000     5.481000000
H    -3.140000000     3.495000000     4.791000000
H    -1.944000000     2.597000000     5.025000000
O    -1.926000000     4.390000000     7.935000000
H    -1.801000000     3.596000000     8.455000000
H    -2.053000000     4.074000000     7.041000000
O    -1.302000000    -2.598000000    10.134000000
H    -1.629000000    -2.315000000     9.280000000
H    -0.658000000    -1.933000000    10.376000000
O     3.086000000     5.555000000     5.008000000
H     3.412000000     5.098000000     5.783000000
H     2.390000000     4.990000000     4.672000000
O     3.277000000     2.438000000     8.954000000
H     2.581000000     1.845000000     8.671000000
H     2.832000000     3.084000000     9.503000000
O     5.344000000     0.934000000     7.372000000
H     4.771000000     1.495000000     7.896000000
H     5.405000000     0.120000000     7.872000000
O    -3.816000000     1.456000000     7.789000000
H    -3.027000000     0.957000000     7.998000000
H    -3.736000000     1.651000000     6.855000000
