215
-1413.85625
C    -4.653000000     1.863000000    -2.997000000
H    -4.287000000     2.315000000    -3.915000000
C    -4.029000000     1.969000000    -1.755000000
C    -4.410000000     1.230000000    -0.670000000
H    -3.873000000     1.347000000     0.268000000
C    -2.737000000     2.844000000    -1.680000000
O    -2.475000000     3.535000000    -2.879000000
H    -2.030000000     2.026000000    -1.479000000
O    -2.743000000     3.798000000    -0.531000000
C    -1.725000000     3.919000000     0.314000000
C    -1.752000000     3.374000000     1.586000000
H    -2.491000000     2.637000000     1.889000000
C    -0.742000000     3.625000000     2.441000000
O    -0.833000000     2.897000000     3.579000000
C     0.441000000     4.283000000     2.010000000
C     1.589000000     4.557000000     2.917000000
H     2.130000000     5.456000000     2.612000000
C     2.554000000     3.416000000     2.857000000
C     3.532000000     3.432000000     1.875000000
H     3.709000000     4.349000000     1.318000000
H     1.262000000     4.793000000     3.932000000
C     0.543000000     4.623000000     0.659000000
H     1.477000000     5.036000000     0.286000000
C    -0.581000000     4.504000000    -0.153000000
C    -0.498000000     5.212000000    -1.490000000
H     0.307000000     5.949000000    -1.523000000
H    -1.439000000     5.733000000    -1.676000000
C    -0.239000000     4.255000000    -2.658000000
C     1.089000000     4.081000000    -2.973000000
H     1.884000000     4.623000000    -2.466000000
C    -1.184000000     3.475000000    -3.314000000
C    -0.847000000     2.567000000    -4.322000000
H    -1.613000000     1.982000000    -4.826000000
C     0.470000000     2.335000000    -4.563000000
O     0.817000000     1.086000000    -5.065000000
C     1.020000000     0.011000000    -4.076000000
C     0.160000000    -1.203000000    -4.321000000
C     0.595000000    -2.434000000    -3.817000000
H     1.522000000    -2.505000000    -3.253000000
C    -0.999000000    -1.141000000    -5.065000000
H    -1.272000000    -0.256000000    -5.634000000
O     2.435000000    -0.261000000    -3.925000000
H     0.702000000     0.547000000    -3.170000000
C     1.479000000     3.168000000    -3.951000000
C     2.961000000     2.797000000    -3.975000000
H     3.527000000     3.730000000    -3.999000000
H     3.236000000     2.263000000    -4.888000000
C     3.458000000     1.887000000    -2.860000000
C     4.135000000     2.352000000    -1.723000000
H     4.334000000     3.400000000    -1.515000000
C     3.247000000     0.430000000    -2.920000000
C     3.843000000    -0.392000000    -1.965000000
H     3.680000000    -1.465000000    -1.904000000
C     4.439000000     0.108000000    -0.824000000
O     4.810000000    -0.813000000     0.162000000
C     4.048000000    -0.768000000     1.320000000
C     3.784000000    -2.199000000     1.759000000
C     3.442000000    -3.225000000     0.895000000
H     3.288000000    -2.996000000    -0.156000000
C     4.009000000    -2.521000000     3.129000000
H     4.334000000    -1.754000000     3.827000000
O     4.753000000     0.084000000     2.227000000
H     3.072000000    -0.363000000     1.015000000
C     4.649000000     1.476000000    -0.723000000
C     5.330000000     2.143000000     0.479000000
H     5.666000000     3.165000000     0.293000000
H     6.252000000     1.584000000     0.652000000
C     4.392000000     2.318000000     1.722000000
C     4.263000000     1.258000000     2.650000000
C     3.261000000     1.265000000     3.582000000
H     3.074000000     0.327000000     4.099000000
C     2.374000000     2.277000000     3.662000000
O     1.268000000     2.074000000     4.423000000
C     0.007000000     1.736000000     3.757000000
H     0.152000000     1.354000000     2.736000000
C    -0.635000000     0.550000000     4.438000000
C    -1.936000000     0.122000000     4.103000000
H    -2.567000000     0.652000000     3.394000000
C     0.066000000    -0.201000000     5.375000000
H     0.983000000     0.179000000     5.818000000
C    -0.550000000    -1.313000000     5.982000000
O     0.075000000    -2.063000000     7.019000000
C    -1.873000000    -1.693000000     5.672000000
H    -2.342000000    -2.538000000     6.169000000
C    -2.578000000    -0.966000000     4.729000000
O    -3.823000000    -1.378000000     4.181000000
C    -4.674000000    -0.583000000     3.442000000
C    -4.967000000    -0.948000000     2.164000000
H    -4.579000000    -1.860000000     1.719000000
C    -5.124000000     0.587000000     3.993000000
H    -4.781000000     0.875000000     4.983000000
C    -5.895000000     1.441000000     3.231000000
H    -6.208000000     2.403000000     3.629000000
C    -6.316000000     1.144000000     1.918000000
H    -6.900000000     1.816000000     1.293000000
C    -5.876000000    -0.101000000     1.411000000
O    -6.065000000    -0.412000000     0.107000000
C    -5.511000000     0.386000000    -0.855000000
C    -6.254000000     0.301000000    -2.086000000
H    -7.181000000    -0.248000000    -2.230000000
C    -5.853000000     1.100000000    -3.118000000
O    -6.435000000     0.809000000    -4.316000000
C    -5.814000000     0.053000000    -5.350000000
C    -4.700000000    -0.800000000    -5.119000000
H    -4.287000000    -0.942000000    -4.124000000
C    -6.350000000     0.108000000    -6.695000000
H    -7.237000000     0.711000000    -6.871000000
C    -5.756000000    -0.644000000    -7.673000000
H    -6.190000000    -0.647000000    -8.669000000
C    -4.592000000    -1.365000000    -7.485000000
H    -4.168000000    -1.990000000    -8.266000000
C    -4.090000000    -1.435000000    -6.200000000
O    -3.006000000    -2.255000000    -5.995000000
C    -1.868000000    -2.226000000    -5.147000000
C    -1.433000000    -3.438000000    -4.652000000
H    -2.068000000    -4.298000000    -4.844000000
C    -0.279000000    -3.507000000    -3.922000000
O     0.034000000    -4.704000000    -3.317000000
C     1.178000000    -5.022000000    -2.749000000
C     1.216000000    -5.125000000    -1.311000000
H     0.344000000    -4.969000000    -0.680000000
C     2.294000000    -5.271000000    -3.574000000
H     2.063000000    -5.312000000    -4.636000000
C     3.475000000    -5.651000000    -2.946000000
H     4.306000000    -6.025000000    -3.539000000
C     3.519000000    -5.741000000    -1.576000000
H     4.498000000    -5.982000000    -1.170000000
C     2.426000000    -5.444000000    -0.705000000
O     2.479000000    -5.501000000     0.655000000
C     3.119000000    -4.507000000     1.383000000
C     3.246000000    -4.721000000     2.766000000
H     2.896000000    -5.593000000     3.312000000
C     3.794000000    -3.755000000     3.586000000
O     4.003000000    -4.067000000     4.933000000
C     3.395000000    -3.472000000     6.022000000
C     4.163000000    -3.269000000     7.158000000
H     5.244000000    -3.354000000     7.086000000
C     3.543000000    -2.832000000     8.354000000
H     4.135000000    -2.696000000     9.256000000
C     2.215000000    -2.372000000     8.224000000
H     1.734000000    -2.030000000     9.137000000
C     1.447000000    -2.448000000     7.025000000
C     2.082000000    -3.019000000     5.889000000
H     1.504000000    -3.143000000     4.977000000
C    -1.737000000    -2.259000000    -0.503000000
H    -2.409000000    -2.745000000    -1.206000000
C    -1.224000000    -0.983000000    -0.801000000
H    -1.652000000    -0.507000000    -1.679000000
C    -0.186000000    -0.496000000     0.003000000
H     0.176000000     0.448000000    -0.162000000
C     0.283000000    -1.208000000     1.028000000
H     1.114000000    -0.821000000     1.612000000
C    -0.355000000    -2.423000000     1.447000000
H    -0.016000000    -2.948000000     2.336000000
C    -1.308000000    -2.998000000     0.598000000
C    -1.969000000    -4.314000000     0.944000000
O    -1.742000000    -4.943000000     1.921000000
O    -2.713000000    -4.723000000     0.070000000
O    -5.249000000    -4.679000000     0.706000000
H    -5.611000000    -4.052000000     0.081000000
H    -4.327000000    -4.758000000     0.461000000
O    -0.467000000    -4.809000000     6.708000000
H    -0.363000000    -4.932000000     7.652000000
H    -0.244000000    -3.890000000     6.560000000
O    -3.342000000    -9.660000000     2.673000000
H    -3.344000000    -8.705000000     2.729000000
H    -2.484000000    -9.877000000     2.307000000
O    -6.059000000    -2.840000000    -1.514000000
H    -6.938000000    -2.751000000    -1.884000000
H    -5.872000000    -1.981000000    -1.134000000
O     2.196000000    -8.700000000     0.583000000
H     1.357000000    -8.275000000     0.762000000
H     2.849000000    -8.099000000     0.939000000
O    -5.581000000    -8.094000000    -0.728000000
H    -4.768000000    -7.635000000    -0.519000000
H    -5.818000000    -7.776000000    -1.600000000
O    -7.665000000    -5.898000000     4.006000000
H    -7.029000000    -5.209000000     3.816000000
H    -7.438000000    -6.197000000     4.887000000
O    -1.298000000   -10.297000000     0.976000000
H    -0.978000000    -9.399000000     0.896000000
H    -0.727000000   -10.807000000     0.401000000
O    -0.666000000    -7.386000000    -2.205000000
H     0.080000000    -7.952000000    -2.404000000
H    -0.572000000    -6.647000000    -2.807000000
O    -3.747000000    -8.257000000    -4.175000000
H    -3.842000000    -7.391000000    -4.573000000
H    -3.940000000    -8.117000000    -3.248000000
O    -5.778000000    -4.143000000     3.236000000
H    -4.869000000    -3.961000000     3.475000000
H    -5.743000000    -4.354000000     2.303000000
O    -0.549000000    -7.698000000     0.484000000
H    -0.540000000    -7.441000000    -0.438000000
H    -0.870000000    -6.923000000     0.946000000
O    -3.302000000    -6.718000000    -1.743000000
H    -2.398000000    -7.033000000    -1.760000000
H    -3.310000000    -6.050000000    -1.057000000
O     0.101000000    -9.280000000     5.373000000
H    -0.465000000    -9.335000000     6.143000000
H    -0.330000000    -8.642000000     4.805000000
O    -3.858000000    -6.752000000     1.940000000
H    -3.146000000    -6.300000000     1.488000000
H    -4.635000000    -6.228000000     1.749000000
O    -5.001000000    -4.908000000    -3.266000000
H    -5.445000000    -4.282000000    -2.694000000
H    -4.393000000    -5.370000000    -2.688000000
O    -5.123000000    -5.538000000     5.583000000
H    -4.402000000    -5.142000000     5.093000000
H    -5.733000000    -4.817000000     5.737000000
O    -1.409000000    -6.925000000     4.188000000
H    -1.380000000    -6.174000000     4.780000000
H    -1.882000000    -6.605000000     3.419000000
O    -3.148000000    -4.208000000     4.201000000
H    -2.649000000    -4.582000000     3.476000000
H    -3.018000000    -3.263000000     4.119000000
