215
-1439.92969
C    -4.309000000    -0.621000000     2.418000000
H    -3.995000000    -1.650000000     2.263000000
C    -4.594000000     0.131000000     1.275000000
C    -4.967000000     1.473000000     1.453000000
H    -5.179000000     2.124000000     0.608000000
C    -4.326000000    -0.447000000    -0.145000000
O    -4.711000000    -1.806000000    -0.343000000
H    -3.231000000    -0.354000000    -0.185000000
O    -4.927000000     0.370000000    -1.178000000
C    -4.069000000     0.621000000    -2.273000000
C    -3.454000000     1.874000000    -2.283000000
H    -3.743000000     2.704000000    -1.644000000
C    -2.398000000     2.121000000    -3.243000000
O    -1.722000000     3.287000000    -3.136000000
C    -2.080000000     1.170000000    -4.224000000
C    -0.956000000     1.556000000    -5.147000000
H    -1.205000000     0.985000000    -6.044000000
C     0.471000000     1.278000000    -4.648000000
C     1.001000000     0.009000000    -4.853000000
H     0.441000000    -0.669000000    -5.492000000
H    -1.138000000     2.595000000    -5.429000000
C    -2.815000000    -0.036000000    -4.227000000
H    -2.516000000    -0.803000000    -4.937000000
C    -3.718000000    -0.321000000    -3.220000000
C    -4.378000000    -1.692000000    -3.197000000
H    -4.502000000    -2.152000000    -4.180000000
H    -5.382000000    -1.617000000    -2.773000000
C    -3.633000000    -2.617000000    -2.301000000
C    -2.535000000    -3.321000000    -2.835000000
H    -2.321000000    -3.264000000    -3.899000000
C    -3.809000000    -2.618000000    -0.923000000
C    -3.038000000    -3.399000000    -0.055000000
H    -3.192000000    -3.373000000     1.020000000
C    -2.003000000    -4.114000000    -0.607000000
O    -1.357000000    -4.885000000     0.371000000
C     0.018000000    -4.420000000     0.676000000
C     0.304000000    -4.633000000     2.174000000
C     1.518000000    -4.256000000     2.718000000
H     2.334000000    -3.928000000     2.080000000
C    -0.740000000    -4.897000000     3.045000000
H    -1.766000000    -5.092000000     2.746000000
O     1.020000000    -4.969000000    -0.126000000
H     0.097000000    -3.327000000     0.574000000
C    -1.727000000    -4.112000000    -1.987000000
C    -0.603000000    -4.823000000    -2.570000000
H    -0.667000000    -5.101000000    -3.624000000
H    -0.490000000    -5.797000000    -2.091000000
C     0.740000000    -4.109000000    -2.381000000
C     1.293000000    -3.386000000    -3.477000000
H     0.824000000    -3.369000000    -4.458000000
C     1.508000000    -4.240000000    -1.173000000
C     2.744000000    -3.552000000    -1.115000000
H     3.390000000    -3.641000000    -0.246000000
C     3.115000000    -2.676000000    -2.159000000
O     4.119000000    -1.713000000    -1.880000000
C     3.837000000    -0.281000000    -1.544000000
C     4.749000000     0.256000000    -0.482000000
C     5.280000000    -0.595000000     0.580000000
H     4.988000000    -1.640000000     0.635000000
C     5.120000000     1.624000000    -0.449000000
H     4.579000000     2.331000000    -1.072000000
O     3.992000000     0.530000000    -2.760000000
H     2.782000000    -0.267000000    -1.233000000
C     2.459000000    -2.628000000    -3.330000000
C     2.820000000    -1.709000000    -4.468000000
H     2.435000000    -2.064000000    -5.426000000
H     3.898000000    -1.546000000    -4.519000000
C     2.252000000    -0.319000000    -4.277000000
C     2.870000000     0.712000000    -3.478000000
C     2.414000000     2.009000000    -3.425000000
H     2.963000000     2.787000000    -2.901000000
C     1.161000000     2.252000000    -3.982000000
O     0.531000000     3.427000000    -3.648000000
C    -0.418000000     3.354000000    -2.557000000
H    -0.149000000     2.370000000    -2.145000000
C    -0.197000000     4.426000000    -1.466000000
C    -1.304000000     5.008000000    -0.766000000
H    -2.298000000     4.635000000    -0.997000000
C     1.081000000     4.883000000    -1.144000000
H     1.989000000     4.525000000    -1.623000000
C     1.290000000     5.865000000    -0.183000000
O     2.548000000     6.452000000     0.061000000
C     0.192000000     6.423000000     0.481000000
H     0.368000000     7.075000000     1.332000000
C    -1.071000000     5.921000000     0.225000000
O    -2.090000000     6.594000000     0.993000000
C    -3.365000000     6.101000000     1.122000000
C    -3.566000000     4.981000000     1.930000000
H    -2.755000000     4.416000000     2.381000000
C    -4.438000000     6.794000000     0.601000000
H    -4.249000000     7.703000000     0.035000000
C    -5.766000000     6.389000000     0.863000000
H    -6.611000000     6.975000000     0.512000000
C    -5.962000000     5.203000000     1.547000000
H    -6.965000000     4.820000000     1.719000000
C    -4.847000000     4.517000000     2.076000000
O    -5.244000000     3.372000000     2.815000000
C    -4.830000000     2.068000000     2.664000000
C    -4.588000000     1.309000000     3.760000000
H    -4.603000000     1.752000000     4.752000000
C    -4.367000000    -0.071000000     3.662000000
O    -3.880000000    -0.766000000     4.785000000
C    -3.887000000    -2.135000000     5.015000000
C    -2.670000000    -2.870000000     5.110000000
H    -1.719000000    -2.346000000     5.159000000
C    -5.012000000    -2.925000000     4.721000000
H    -5.960000000    -2.490000000     4.414000000
C    -5.007000000    -4.327000000     4.832000000
H    -5.969000000    -4.788000000     4.625000000
C    -3.822000000    -5.029000000     5.179000000
H    -3.832000000    -6.115000000     5.226000000
C    -2.680000000    -4.254000000     5.206000000
O    -1.527000000    -4.900000000     5.347000000
C    -0.494000000    -4.762000000     4.443000000
C     0.706000000    -4.255000000     4.938000000
H     0.784000000    -4.001000000     5.992000000
C     1.735000000    -4.069000000     4.054000000
O     2.962000000    -3.652000000     4.475000000
C     4.059000000    -3.505000000     3.742000000
C     4.583000000    -2.231000000     3.455000000
H     4.022000000    -1.319000000     3.643000000
C     4.813000000    -4.571000000     3.448000000
H     4.380000000    -5.551000000     3.631000000
C     6.004000000    -4.465000000     2.704000000
H     6.613000000    -5.306000000     2.382000000
C     6.502000000    -3.191000000     2.444000000
H     7.357000000    -3.051000000     1.787000000
C     5.823000000    -2.069000000     2.914000000
O     6.388000000    -0.852000000     2.643000000
C     6.096000000    -0.136000000     1.551000000
C     6.411000000     1.209000000     1.569000000
H     6.959000000     1.549000000     2.443000000
C     5.986000000     2.080000000     0.519000000
O     6.220000000     3.447000000     0.547000000
C     5.615000000     4.429000000    -0.247000000
C     5.927000000     4.618000000    -1.547000000
H     6.755000000     4.047000000    -1.961000000
C     5.163000000     5.462000000    -2.299000000
H     5.417000000     5.503000000    -3.355000000
C     3.985000000     6.070000000    -1.795000000
H     3.290000000     6.555000000    -2.476000000
C     3.657000000     5.869000000    -0.528000000
C     4.484000000     5.082000000     0.307000000
H     4.170000000     4.826000000     1.315000000
C     1.312000000    -0.670000000     2.463000000
H     1.943000000    -1.309000000     3.077000000
C     1.208000000    -0.907000000     1.092000000
H     1.770000000    -1.704000000     0.612000000
C     0.216000000    -0.266000000     0.366000000
H     0.088000000    -0.543000000    -0.682000000
C    -0.476000000     0.713000000     0.960000000
H    -1.196000000     1.260000000     0.357000000
C    -0.452000000     0.959000000     2.367000000
H    -1.136000000     1.697000000     2.778000000
C     0.549000000     0.286000000     3.160000000
C     0.783000000     0.617000000     4.570000000
O     0.077000000     1.406000000     5.235000000
O     1.758000000     0.095000000     5.101000000
O    -2.090000000     6.419000000     4.464000000
H    -1.664000000     5.657000000     4.858000000
H    -1.434000000     7.113000000     4.515000000
O     2.814000000     2.550000000     1.473000000
H     3.415000000     2.019000000     0.950000000
H     2.135000000     1.936000000     1.754000000
O    -2.424000000    -2.152000000     8.523000000
H    -3.360000000    -2.030000000     8.365000000
H    -2.001000000    -1.787000000     7.746000000
O     0.787000000    -2.037000000     8.878000000
H     0.069000000    -2.538000000     9.264000000
H     0.375000000    -1.520000000     8.186000000
O     2.505000000     4.910000000     7.333000000
H     2.630000000     4.085000000     6.865000000
H     2.922000000     5.567000000     6.777000000
O     2.404000000     2.495000000     9.949000000
H     2.408000000     1.594000000     9.627000000
H     2.780000000     2.437000000    10.827000000
O     3.544000000    -0.713000000     6.727000000
H     2.815000000    -0.395000000     6.195000000
H     3.276000000    -0.539000000     7.630000000
O     2.940000000    -0.416000000     9.401000000
H     2.068000000    -0.777000000     9.238000000
H     3.453000000    -1.162000000     9.712000000
O    -1.418000000     0.454000000    10.189000000
H    -0.888000000    -0.017000000    10.832000000
H    -1.302000000    -0.039000000     9.377000000
O    -5.039000000     1.106000000     7.962000000
H    -5.000000000     1.008000000     8.913000000
H    -4.123000000     1.147000000     7.688000000
O     4.936000000    -2.844000000     7.461000000
H     4.665000000    -2.894000000     8.377000000
H     4.313000000    -2.238000000     7.060000000
O    -0.238000000     0.204000000     7.541000000
H    -0.809000000     0.952000000     7.711000000
H     0.234000000     0.439000000     6.741000000
O     0.488000000     4.200000000     8.899000000
H     1.188000000     3.651000000     9.254000000
H     0.897000000     4.665000000     8.169000000
O     4.901000000     2.728000000     8.405000000
H     3.974000000     2.620000000     8.618000000
H     5.350000000     2.646000000     9.246000000
O     2.092000000     4.429000000     3.710000000
H     2.481000000     4.078000000     4.511000000
H     2.739000000     4.245000000     3.029000000
O     6.020000000     0.333000000     5.410000000
H     5.344000000    -0.289000000     5.680000000
H     6.700000000    -0.210000000     5.011000000
O    -0.594000000     3.865000000     4.709000000
H    -0.386000000     2.946000000     4.881000000
H     0.182000000     4.208000000     4.268000000
O     2.593000000     2.672000000     5.940000000
H     3.226000000     2.037000000     6.273000000
H     1.783000000     2.171000000     5.836000000
O    -2.230000000     2.377000000     7.004000000
H    -1.797000000     2.292000000     6.155000000
H    -2.202000000     3.314000000     7.195000000
