215
-1462.44487
C    -4.194000000    -1.654000000     2.607000000
H    -3.606000000    -2.503000000     2.267000000
C    -4.540000000    -0.729000000     1.638000000
C    -5.061000000     0.475000000     2.117000000
H    -5.429000000     1.286000000     1.493000000
C    -4.138000000    -0.918000000     0.141000000
O    -4.355000000    -2.293000000    -0.274000000
H    -3.085000000    -0.618000000     0.034000000
O    -4.936000000    -0.146000000    -0.687000000
C    -4.376000000     0.520000000    -1.781000000
C    -3.976000000     1.868000000    -1.513000000
H    -4.253000000     2.430000000    -0.625000000
C    -3.119000000     2.455000000    -2.396000000
O    -2.432000000     3.602000000    -2.013000000
C    -2.730000000     1.772000000    -3.596000000
C    -1.791000000     2.404000000    -4.631000000
H    -1.944000000     2.042000000    -5.650000000
C    -0.332000000     2.162000000    -4.306000000
C     0.295000000     1.016000000    -4.747000000
H    -0.147000000     0.353000000    -5.487000000
H    -1.923000000     3.454000000    -4.897000000
C    -3.135000000     0.474000000    -3.872000000
H    -2.734000000    -0.097000000    -4.705000000
C    -3.909000000    -0.184000000    -2.897000000
C    -4.245000000    -1.662000000    -3.163000000
H    -4.214000000    -1.773000000    -4.249000000
H    -5.245000000    -1.906000000    -2.799000000
C    -3.294000000    -2.564000000    -2.429000000
C    -2.185000000    -3.000000000    -3.146000000
H    -2.033000000    -2.613000000    -4.150000000
C    -3.480000000    -2.909000000    -1.110000000
C    -2.578000000    -3.765000000    -0.536000000
H    -2.713000000    -4.095000000     0.491000000
C    -1.471000000    -4.267000000    -1.261000000
O    -0.528000000    -5.063000000    -0.615000000
C     0.645000000    -4.383000000    -0.197000000
C     1.030000000    -4.699000000     1.213000000
C     2.240000000    -4.170000000     1.685000000
H     2.859000000    -3.666000000     0.948000000
C     0.128000000    -5.233000000     2.139000000
H    -0.855000000    -5.544000000     1.795000000
O     1.721000000    -4.628000000    -1.148000000
H     0.387000000    -3.314000000    -0.175000000
C    -1.248000000    -3.900000000    -2.575000000
C    -0.074000000    -4.385000000    -3.438000000
H    -0.379000000    -4.366000000    -4.486000000
H     0.200000000    -5.419000000    -3.217000000
C     1.090000000    -3.502000000    -3.242000000
C     1.261000000    -2.430000000    -4.070000000
H     0.610000000    -2.361000000    -4.938000000
C     1.962000000    -3.718000000    -2.147000000
C     3.035000000    -2.784000000    -1.987000000
H     3.765000000    -3.013000000    -1.215000000
C     3.108000000    -1.638000000    -2.808000000
O     4.058000000    -0.734000000    -2.532000000
C     3.675000000     0.514000000    -1.910000000
C     4.513000000     0.990000000    -0.764000000
C     5.252000000    -0.009000000    -0.052000000
H     5.107000000    -1.011000000    -0.450000000
C     4.700000000     2.338000000    -0.399000000
H     4.240000000     3.128000000    -0.987000000
O     3.558000000     1.553000000    -2.950000000
H     2.674000000     0.387000000    -1.473000000
C     2.188000000    -1.500000000    -3.871000000
C     2.336000000    -0.392000000    -4.822000000
H     1.902000000    -0.764000000    -5.752000000
H     3.371000000    -0.098000000    -5.005000000
C     1.621000000     0.845000000    -4.373000000
C     2.298000000     1.708000000    -3.529000000
C     1.633000000     2.865000000    -3.201000000
H     2.177000000     3.545000000    -2.551000000
C     0.331000000     3.141000000    -3.557000000
O    -0.230000000     4.160000000    -2.797000000
C    -1.016000000     3.643000000    -1.705000000
H    -0.685000000     2.628000000    -1.440000000
C    -0.822000000     4.506000000    -0.475000000
C    -1.730000000     4.394000000     0.621000000
H    -2.687000000     3.882000000     0.568000000
C     0.381000000     5.226000000    -0.310000000
H     1.119000000     5.276000000    -1.107000000
C     0.625000000     5.905000000     0.864000000
O     1.751000000     6.602000000     1.029000000
C    -0.255000000     5.812000000     1.903000000
H    -0.052000000     6.342000000     2.830000000
C    -1.506000000     5.154000000     1.830000000
O    -2.346000000     5.123000000     2.953000000
C    -3.634000000     4.774000000     2.803000000
C    -4.066000000     3.632000000     3.398000000
H    -3.409000000     3.005000000     3.996000000
C    -4.462000000     5.629000000     2.089000000
H    -4.102000000     6.570000000     1.682000000
C    -5.846000000     5.292000000     1.927000000
H    -6.544000000     5.936000000     1.398000000
C    -6.261000000     4.030000000     2.436000000
H    -7.261000000     3.610000000     2.503000000
C    -5.372000000     3.261000000     3.186000000
O    -5.721000000     2.053000000     3.780000000
C    -5.156000000     0.823000000     3.420000000
C    -4.699000000    -0.070000000     4.322000000
H    -4.692000000     0.260000000     5.358000000
C    -4.231000000    -1.300000000     3.950000000
O    -3.839000000    -2.202000000     4.915000000
C    -3.423000000    -3.511000000     4.621000000
C    -2.101000000    -3.909000000     4.728000000
H    -1.297000000    -3.286000000     5.111000000
C    -4.398000000    -4.456000000     4.213000000
H    -5.420000000    -4.112000000     4.078000000
C    -4.043000000    -5.784000000     3.993000000
H    -4.751000000    -6.544000000     3.672000000
C    -2.737000000    -6.170000000     4.204000000
H    -2.469000000    -7.211000000     4.045000000
C    -1.783000000    -5.247000000     4.472000000
O    -0.494000000    -5.752000000     4.373000000
C     0.453000000    -5.305000000     3.488000000
C     1.627000000    -4.796000000     3.934000000
H     1.816000000    -4.833000000     5.004000000
C     2.534000000    -4.232000000     3.022000000
O     3.739000000    -3.668000000     3.438000000
C     4.860000000    -3.494000000     2.679000000
C     5.413000000    -2.211000000     2.638000000
H     5.073000000    -1.466000000     3.353000000
C     5.346000000    -4.484000000     1.813000000
H     4.876000000    -5.465000000     1.828000000
C     6.390000000    -4.170000000     0.908000000
H     6.781000000    -4.886000000     0.189000000
C     6.937000000    -2.939000000     0.894000000
H     7.730000000    -2.596000000     0.234000000
C     6.425000000    -1.948000000     1.704000000
O     6.813000000    -0.648000000     1.617000000
C     6.080000000     0.349000000     0.977000000
C     6.190000000     1.712000000     1.375000000
H     6.893000000     2.014000000     2.147000000
C     5.541000000     2.690000000     0.645000000
O     5.825000000     3.982000000     0.906000000
C     5.031000000     4.997000000     0.396000000
C     5.459000000     5.743000000    -0.705000000
H     6.463000000     5.558000000    -1.081000000
C     4.630000000     6.742000000    -1.272000000
H     5.004000000     7.273000000    -2.144000000
C     3.361000000     6.997000000    -0.746000000
H     2.730000000     7.722000000    -1.254000000
C     2.996000000     6.338000000     0.435000000
C     3.830000000     5.379000000     0.986000000
H     3.563000000     4.811000000     1.874000000
C     1.624000000    -0.947000000     2.122000000
H     2.463000000    -1.568000000     2.425000000
C     1.197000000    -0.942000000     0.761000000
H     1.698000000    -1.597000000     0.053000000
C     0.121000000    -0.192000000     0.346000000
H    -0.239000000    -0.286000000    -0.732000000
C    -0.467000000     0.692000000     1.222000000
H    -1.273000000     1.341000000     0.889000000
C    -0.115000000     0.628000000     2.555000000
H    -0.761000000     1.207000000     3.209000000
C     0.920000000    -0.187000000     3.043000000
C     1.447000000    -0.161000000     4.469000000
O     0.879000000     0.674000000     5.172000000
O     2.156000000    -1.031000000     4.962000000
O     2.431000000     1.015000000     7.413000000
H     2.185000000     0.636000000     6.569000000
H     1.677000000     1.548000000     7.665000000
O     8.010000000    -1.079000000     5.032000000
H     7.454000000    -0.407000000     4.638000000
H     7.399000000    -1.756000000     5.322000000
O     4.189000000    -4.791000000     6.801000000
H     3.602000000    -5.547000000     6.773000000
H     3.608000000    -4.033000000     6.740000000
O    -0.725000000    -0.124000000     6.893000000
H    -0.429000000    -1.034000000     6.907000000
H    -0.136000000     0.310000000     6.275000000
O     2.561000000    -2.826000000     6.666000000
H     2.646000000    -2.162000000     5.982000000
H     1.622000000    -3.002000000     6.713000000
O     4.733000000     1.317000000     4.025000000
H     4.750000000     0.656000000     4.716000000
H     5.472000000     1.892000000     4.225000000
O    -1.871000000     0.704000000     8.968000000
H    -1.602000000     0.517000000     8.069000000
H    -2.491000000     1.428000000     8.887000000
O     1.909000000     5.310000000     5.905000000
H     2.007000000     6.146000000     5.449000000
H     0.965000000     5.219000000     6.038000000
O     0.296000000     2.427000000     8.858000000
H     0.682000000     2.321000000     9.727000000
H    -0.486000000     1.875000000     8.875000000
O     0.016000000    -3.822000000     7.671000000
H    -0.888000000    -4.136000000     7.656000000
H     0.189000000    -3.631000000     8.593000000
O    -2.330000000     3.973000000     6.308000000
H    -2.669000000     4.821000000     6.023000000
H    -1.631000000     3.773000000     5.685000000
O     4.114000000     4.553000000     4.486000000
H     3.861000000     3.982000000     3.761000000
H     3.318000000     4.644000000     5.009000000
O     6.169000000    -2.767000000     6.083000000
H     6.473000000    -2.893000000     6.982000000
H     5.443000000    -3.383000000     5.987000000
O     4.850000000    -0.482000000     6.297000000
H     5.574000000    -1.077000000     6.101000000
H     4.074000000    -1.042000000     6.302000000
O     2.557000000    -1.177000000     9.399000000
H     2.514000000    -0.471000000     8.754000000
H     2.515000000    -1.979000000     8.878000000
O     2.756000000     2.652000000     2.684000000
H     2.031000000     2.028000000     2.691000000
H     3.440000000     2.231000000     3.204000000
O     0.016000000     3.277000000     5.008000000
H     0.306000000     3.283000000     4.096000000
H     0.204000000     2.389000000     5.314000000
O     7.263000000     1.053000000     7.396000000
H     7.381000000     1.341000000     6.491000000
H     6.314000000     1.019000000     7.515000000
O     4.419000000     2.817000000     7.210000000
H     4.091000000     3.407000000     6.531000000
H     3.775000000     2.109000000     7.244000000
