215
-1417.03576
C    -3.609000000    -1.183000000     2.894000000
H    -3.095000000    -2.106000000     2.639000000
C    -4.146000000    -0.371000000     1.943000000
C    -4.717000000     0.784000000     2.273000000
H    -5.049000000     1.510000000     1.535000000
C    -3.945000000    -0.814000000     0.418000000
O    -4.392000000    -2.166000000     0.191000000
H    -2.874000000    -0.720000000     0.184000000
O    -4.697000000     0.107000000    -0.404000000
C    -4.118000000     0.543000000    -1.593000000
C    -3.673000000     1.839000000    -1.571000000
H    -3.809000000     2.448000000    -0.681000000
C    -2.832000000     2.309000000    -2.605000000
O    -2.382000000     3.614000000    -2.522000000
C    -2.583000000     1.553000000    -3.689000000
C    -1.775000000     2.094000000    -4.843000000
H    -2.034000000     1.513000000    -5.731000000
C    -0.311000000     1.980000000    -4.573000000
C     0.317000000     0.804000000    -4.961000000
H    -0.265000000     0.037000000    -5.465000000
H    -2.101000000     3.128000000    -4.978000000
C    -3.152000000     0.314000000    -3.725000000
H    -2.941000000    -0.202000000    -4.658000000
C    -3.860000000    -0.229000000    -2.665000000
C    -4.433000000    -1.566000000    -2.734000000
H    -4.660000000    -1.878000000    -3.756000000
H    -5.380000000    -1.436000000    -2.207000000
C    -3.586000000    -2.637000000    -2.020000000
C    -2.575000000    -3.230000000    -2.737000000
H    -2.512000000    -3.036000000    -3.805000000
C    -3.568000000    -2.873000000    -0.658000000
C    -2.634000000    -3.711000000    -0.052000000
H    -2.797000000    -4.008000000     0.981000000
C    -1.612000000    -4.242000000    -0.812000000
O    -0.772000000    -5.071000000    -0.188000000
C     0.548000000    -4.388000000     0.114000000
C     1.128000000    -4.641000000     1.422000000
C     2.470000000    -4.843000000     1.644000000
H     3.174000000    -4.787000000     0.818000000
C     0.276000000    -4.816000000     2.496000000
H    -0.779000000    -4.687000000     2.269000000
O     1.506000000    -4.579000000    -0.876000000
H     0.425000000    -3.295000000     0.073000000
C    -1.592000000    -4.027000000    -2.187000000
C    -0.478000000    -4.552000000    -2.979000000
H    -0.836000000    -4.557000000    -4.010000000
H    -0.129000000    -5.539000000    -2.671000000
C     0.716000000    -3.614000000    -2.920000000
C     0.906000000    -2.603000000    -3.933000000
H     0.120000000    -2.511000000    -4.678000000
C     1.682000000    -3.670000000    -1.949000000
C     2.853000000    -2.939000000    -1.972000000
H     3.669000000    -3.079000000    -1.267000000
C     2.979000000    -1.936000000    -2.932000000
O     3.957000000    -1.057000000    -2.746000000
C     3.493000000     0.185000000    -2.159000000
C     4.214000000     0.589000000    -0.917000000
C     4.724000000    -0.341000000    -0.036000000
H     4.455000000    -1.390000000    -0.129000000
C     4.466000000     1.949000000    -0.637000000
H     4.101000000     2.759000000    -1.262000000
O     3.541000000     1.161000000    -3.235000000
H     2.513000000    -0.002000000    -1.695000000
C     2.035000000    -1.747000000    -3.905000000
C     2.262000000    -0.740000000    -4.954000000
H     1.849000000    -1.145000000    -5.881000000
H     3.315000000    -0.530000000    -5.153000000
C     1.624000000     0.519000000    -4.556000000
C     2.307000000     1.456000000    -3.796000000
C     1.781000000     2.659000000    -3.485000000
H     2.306000000     3.360000000    -2.842000000
C     0.411000000     2.900000000    -3.811000000
O    -0.228000000     3.953000000    -3.252000000
C    -1.018000000     3.679000000    -2.053000000
H    -0.664000000     2.717000000    -1.655000000
C    -0.771000000     4.777000000    -0.988000000
C    -1.827000000     5.018000000    -0.129000000
H    -2.814000000     4.603000000    -0.315000000
C     0.389000000     5.529000000    -0.958000000
H     1.228000000     5.341000000    -1.623000000
C     0.658000000     6.303000000     0.186000000
O     1.803000000     7.044000000     0.385000000
C    -0.394000000     6.476000000     1.096000000
H    -0.206000000     7.095000000     1.970000000
C    -1.700000000     5.859000000     0.938000000
O    -2.711000000     6.127000000     1.760000000
C    -3.862000000     5.449000000     1.983000000
C    -3.883000000     4.299000000     2.647000000
H    -2.927000000     3.911000000     2.992000000
C    -5.030000000     6.083000000     1.668000000
H    -5.016000000     7.147000000     1.447000000
C    -6.226000000     5.440000000     1.814000000
H    -7.133000000     5.977000000     1.546000000
C    -6.302000000     4.263000000     2.521000000
H    -7.255000000     3.794000000     2.750000000
C    -5.096000000     3.676000000     3.022000000
O    -5.039000000     2.557000000     3.863000000
C    -4.720000000     1.242000000     3.559000000
C    -4.236000000     0.411000000     4.548000000
H    -4.159000000     0.702000000     5.592000000
C    -3.778000000    -0.876000000     4.270000000
O    -3.209000000    -1.583000000     5.293000000
C    -3.007000000    -2.986000000     5.163000000
C    -1.745000000    -3.546000000     5.093000000
H    -0.920000000    -2.886000000     5.349000000
C    -4.111000000    -3.773000000     4.732000000
H    -5.119000000    -3.387000000     4.602000000
C    -3.883000000    -5.148000000     4.397000000
H    -4.729000000    -5.779000000     4.137000000
C    -2.561000000    -5.674000000     4.324000000
H    -2.339000000    -6.709000000     4.077000000
C    -1.482000000    -4.909000000     4.761000000
O    -0.223000000    -5.423000000     4.806000000
C     0.694000000    -5.222000000     3.757000000
C     2.086000000    -5.388000000     3.947000000
H     2.492000000    -5.460000000     4.953000000
C     3.001000000    -5.156000000     2.925000000
O     4.373000000    -5.364000000     3.137000000
C     5.321000000    -4.544000000     2.524000000
C     5.113000000    -3.185000000     2.669000000
H     4.375000000    -2.892000000     3.411000000
C     6.192000000    -4.939000000     1.583000000
H     6.171000000    -5.994000000     1.320000000
C     6.954000000    -4.089000000     0.724000000
H     7.662000000    -4.360000000    -0.054000000
C     6.750000000    -2.688000000     0.943000000
H     7.273000000    -1.889000000     0.424000000
C     5.812000000    -2.258000000     1.894000000
O     5.644000000    -0.899000000     2.124000000
C     5.331000000     0.018000000     1.162000000
C     5.428000000     1.311000000     1.498000000
H     5.974000000     1.560000000     2.404000000
C     5.025000000     2.388000000     0.631000000
O     5.074000000     3.707000000     1.153000000
C     4.701000000     4.792000000     0.420000000
C     5.569000000     5.351000000    -0.488000000
H     6.536000000     4.855000000    -0.535000000
C     5.066000000     6.438000000    -1.210000000
H     5.680000000     6.950000000    -1.946000000
C     3.795000000     6.974000000    -1.001000000
H     3.486000000     7.889000000    -1.500000000
C     2.998000000     6.425000000     0.032000000
C     3.450000000     5.250000000     0.639000000
H     2.811000000     4.940000000     1.461000000
C     1.519000000    -0.711000000     2.549000000
H     2.394000000    -1.212000000     2.955000000
C     1.324000000    -0.720000000     1.195000000
H     2.074000000    -1.251000000     0.614000000
C     0.109000000    -0.229000000     0.625000000
H    -0.075000000    -0.320000000    -0.470000000
C    -0.882000000     0.255000000     1.478000000
H    -1.812000000     0.676000000     1.104000000
C    -0.642000000     0.296000000     2.860000000
H    -1.412000000     0.763000000     3.469000000
C     0.599000000    -0.124000000     3.459000000
C     0.832000000    -0.082000000     4.956000000
O     0.268000000     0.701000000     5.722000000
O     1.783000000    -0.639000000     5.468000000
O     2.538000000     1.091000000     7.930000000
H     3.022000000     1.907000000     7.804000000
H     2.267000000     0.835000000     7.048000000
O    -0.488000000    -0.920000000     8.909000000
H    -0.152000000    -0.261000000     8.300000000
H    -1.425000000    -0.738000000     8.966000000
O    -2.985000000     0.981000000     9.810000000
H    -2.405000000     1.303000000     9.119000000
H    -2.528000000     1.190000000    10.624000000
O    -1.325000000     1.833000000     8.136000000
H    -1.680000000     2.721000000     8.097000000
H    -1.120000000     1.616000000     7.227000000
O     3.226000000    -2.788000000     5.857000000
H     2.608000000    -2.098000000     5.614000000
H     2.727000000    -3.362000000     6.438000000
O     3.254000000     2.095000000    10.327000000
H     3.787000000     1.450000000    10.791000000
H     2.955000000     1.638000000     9.540000000
O     5.475000000     2.551000000     4.884000000
H     5.091000000     1.682000000     5.007000000
H     6.409000000     2.385000000     4.760000000
O     0.202000000     6.426000000     6.404000000
H    -0.454000000     6.816000000     5.826000000
H     0.586000000     5.717000000     5.889000000
O     0.966000000     3.557000000     9.789000000
H     1.734000000     2.994000000     9.889000000
H     0.614000000     3.332000000     8.928000000
O     0.652000000    -3.560000000     8.051000000
H     0.045000000    -2.908000000     8.400000000
H     1.399000000    -3.536000000     8.650000000
O     2.820000000     5.774000000     4.450000000
H     3.746000000     5.536000000     4.408000000
H     2.355000000     4.972000000     4.215000000
O     5.858000000    -2.160000000     5.913000000
H     6.271000000    -2.249000000     6.772000000
H     4.986000000    -2.537000000     6.026000000
O     4.231000000     0.005000000     5.171000000
H     4.729000000    -0.736000000     4.824000000
H     3.413000000    -0.381000000     5.483000000
O     4.326000000    -1.319000000     8.479000000
H     3.924000000    -0.465000000     8.320000000
H     3.929000000    -1.895000000     7.826000000
O     2.727000000     2.928000000     3.251000000
H     2.438000000     2.063000000     2.960000000
H     3.682000000     2.886000000     3.214000000
O     1.199000000     3.487000000     5.603000000
H     1.600000000     3.010000000     4.877000000
H     0.495000000     2.913000000     5.907000000
O     6.328000000     1.053000000     8.587000000
H     5.495000000     0.767000000     8.213000000
H     6.390000000     0.585000000     9.419000000
O     1.732000000    -0.819000000    11.213000000
H     1.071000000    -0.449000000    10.627000000
H     1.808000000    -1.733000000    10.942000000
O     3.656000000     3.231000000     6.969000000
H     4.360000000     3.330000000     6.328000000
H     2.896000000     3.641000000     6.554000000
