215
-1429.04578
C    -4.718000000     1.595000000    -2.893000000
H    -4.230000000     1.657000000    -3.863000000
C    -4.158000000     2.033000000    -1.638000000
C    -4.909000000     1.895000000    -0.490000000
H    -4.496000000     2.229000000     0.458000000
C    -2.769000000     2.725000000    -1.502000000
O    -2.388000000     3.333000000    -2.699000000
H    -2.020000000     1.963000000    -1.238000000
O    -2.795000000     3.829000000    -0.502000000
C    -1.672000000     4.101000000     0.214000000
C    -1.721000000     3.726000000     1.547000000
H    -2.602000000     3.239000000     1.956000000
C    -0.584000000     3.926000000     2.347000000
O    -0.528000000     3.350000000     3.585000000
C     0.522000000     4.539000000     1.814000000
C     1.853000000     4.678000000     2.582000000
H     2.398000000     5.571000000     2.267000000
C     2.759000000     3.425000000     2.520000000
C     3.741000000     3.373000000     1.469000000
H     3.978000000     4.172000000     0.771000000
H     1.621000000     4.859000000     3.634000000
C     0.537000000     4.990000000     0.473000000
H     1.373000000     5.499000000     0.001000000
C    -0.533000000     4.764000000    -0.344000000
C    -0.532000000     5.187000000    -1.751000000
H     0.115000000     6.045000000    -1.941000000
H    -1.527000000     5.609000000    -1.906000000
C    -0.107000000     4.101000000    -2.741000000
C     1.189000000     3.874000000    -3.148000000
H     1.899000000     4.683000000    -2.997000000
C    -1.077000000     3.250000000    -3.164000000
C    -0.812000000     2.269000000    -4.100000000
H    -1.670000000     1.649000000    -4.345000000
C     0.476000000     1.955000000    -4.365000000
O     0.668000000     0.731000000    -4.970000000
C     1.284000000    -0.267000000    -4.148000000
C     0.485000000    -1.564000000    -4.347000000
C     1.098000000    -2.818000000    -4.247000000
H     2.176000000    -2.881000000    -4.125000000
C    -0.927000000    -1.615000000    -4.473000000
H    -1.438000000    -0.665000000    -4.335000000
O     2.674000000    -0.401000000    -4.290000000
H     1.052000000    -0.028000000    -3.100000000
C     1.518000000     2.738000000    -3.906000000
C     3.028000000     2.492000000    -4.227000000
H     3.495000000     3.459000000    -4.028000000
H     3.079000000     2.131000000    -5.257000000
C     3.597000000     1.550000000    -3.203000000
C     4.296000000     2.148000000    -2.158000000
H     4.444000000     3.224000000    -2.115000000
C     3.462000000     0.127000000    -3.316000000
C     4.150000000    -0.646000000    -2.403000000
H     4.087000000    -1.729000000    -2.469000000
C     4.649000000    -0.040000000    -1.252000000
O     4.943000000    -0.912000000    -0.201000000
C     4.094000000    -0.859000000     0.977000000
C     3.460000000    -2.101000000     1.545000000
C     2.606000000    -2.840000000     0.684000000
H     2.690000000    -2.557000000    -0.363000000
C     3.605000000    -2.460000000     2.890000000
H     4.282000000    -1.912000000     3.541000000
O     4.785000000    -0.121000000     1.976000000
H     3.156000000    -0.406000000     0.623000000
C     4.760000000     1.353000000    -1.148000000
C     5.410000000     2.023000000     0.082000000
H     5.560000000     3.044000000    -0.276000000
H     6.326000000     1.555000000     0.446000000
C     4.513000000     2.161000000     1.287000000
C     4.310000000     1.109000000     2.230000000
C     3.375000000     1.217000000     3.250000000
H     3.263000000     0.444000000     4.007000000
C     2.617000000     2.380000000     3.424000000
O     1.560000000     2.335000000     4.234000000
C     0.209000000     2.101000000     3.693000000
H     0.300000000     1.708000000     2.669000000
C    -0.616000000     1.099000000     4.441000000
C    -1.810000000     0.693000000     3.864000000
H    -2.272000000     1.099000000     2.968000000
C    -0.103000000     0.372000000     5.536000000
H     0.881000000     0.536000000     5.967000000
C    -0.682000000    -0.799000000     5.940000000
O    -0.112000000    -1.606000000     6.858000000
C    -1.874000000    -1.212000000     5.298000000
H    -2.411000000    -2.073000000     5.688000000
C    -2.481000000    -0.488000000     4.333000000
O    -3.662000000    -0.941000000     3.779000000
C    -4.718000000    -0.071000000     3.504000000
C    -5.099000000     0.080000000     2.153000000
H    -4.468000000    -0.367000000     1.389000000
C    -5.481000000     0.485000000     4.537000000
H    -5.350000000     0.271000000     5.595000000
C    -6.512000000     1.327000000     4.198000000
H    -7.097000000     1.845000000     4.953000000
C    -6.891000000     1.498000000     2.872000000
H    -7.714000000     2.143000000     2.576000000
C    -6.130000000     0.873000000     1.846000000
O    -6.737000000     0.895000000     0.586000000
C    -6.052000000     1.111000000    -0.542000000
C    -6.604000000     0.665000000    -1.734000000
H    -7.474000000     0.016000000    -1.680000000
C    -5.925000000     0.923000000    -2.907000000
O    -6.390000000     0.355000000    -3.974000000
C    -5.528000000    -0.287000000    -4.845000000
C    -4.784000000    -1.423000000    -4.447000000
H    -4.834000000    -1.797000000    -3.427000000
C    -5.273000000     0.220000000    -6.094000000
H    -5.883000000     1.074000000    -6.380000000
C    -4.345000000    -0.358000000    -6.991000000
H    -4.186000000     0.034000000    -7.992000000
C    -3.623000000    -1.415000000    -6.601000000
H    -2.971000000    -2.068000000    -7.175000000
C    -3.733000000    -1.888000000    -5.294000000
O    -3.004000000    -2.904000000    -4.787000000
C    -1.638000000    -2.830000000    -4.749000000
C    -0.970000000    -4.071000000    -4.679000000
H    -1.564000000    -4.980000000    -4.727000000
C     0.434000000    -4.021000000    -4.457000000
O     1.171000000    -5.230000000    -4.351000000
C     1.736000000    -5.623000000    -3.149000000
C     1.238000000    -5.218000000    -1.982000000
H     0.258000000    -4.749000000    -1.936000000
C     3.032000000    -6.193000000    -3.219000000
H     3.422000000    -6.357000000    -4.221000000
C     3.834000000    -6.291000000    -2.101000000
H     4.812000000    -6.764000000    -2.124000000
C     3.327000000    -5.807000000    -0.903000000
H     3.926000000    -5.884000000     0.001000000
C     2.027000000    -5.177000000    -0.833000000
O     1.352000000    -4.771000000     0.346000000
C     1.952000000    -3.988000000     1.170000000
C     2.227000000    -4.445000000     2.468000000
H     1.735000000    -5.344000000     2.830000000
C     3.041000000    -3.685000000     3.346000000
O     3.290000000    -4.139000000     4.605000000
C     2.801000000    -3.517000000     5.759000000
C     3.486000000    -3.658000000     6.938000000
H     4.413000000    -4.219000000     7.027000000
C     2.949000000    -3.108000000     8.116000000
H     3.513000000    -3.251000000     9.033000000
C     1.722000000    -2.378000000     8.119000000
H     1.206000000    -2.094000000     9.033000000
C     1.079000000    -2.196000000     6.925000000
C     1.655000000    -2.665000000     5.735000000
H     1.129000000    -2.496000000     4.800000000
C    -1.622000000    -1.800000000    -0.137000000
H    -2.366000000    -2.217000000    -0.811000000
C    -0.790000000    -0.740000000    -0.601000000
H    -0.877000000    -0.492000000    -1.655000000
C     0.125000000    -0.165000000     0.248000000
H     0.772000000     0.648000000    -0.150000000
C     0.245000000    -0.780000000     1.529000000
H     1.094000000    -0.464000000     2.129000000
C    -0.532000000    -1.786000000     2.019000000
H    -0.388000000    -2.118000000     3.044000000
C    -1.588000000    -2.258000000     1.171000000
C    -2.558000000    -3.320000000     1.596000000
O    -2.310000000    -3.976000000     2.623000000
O    -3.655000000    -3.407000000     1.104000000
O    -6.121000000    -2.807000000     1.854000000
H    -6.578000000    -2.420000000     1.107000000
H    -5.202000000    -2.577000000     1.718000000
O    -7.708000000    -2.660000000    -0.546000000
H    -7.701000000    -2.512000000    -1.492000000
H    -8.493000000    -3.186000000    -0.392000000
O    -7.149000000    -7.097000000     0.618000000
H    -6.799000000    -7.331000000    -0.242000000
H    -6.393000000    -6.761000000     1.100000000
O    -5.361000000    -5.365000000     1.724000000
H    -4.683000000    -4.785000000     1.379000000
H    -6.088000000    -4.781000000     1.942000000
O    -0.405000000    -5.032000000     7.849000000
H    -1.172000000    -5.078000000     7.278000000
H    -0.612000000    -5.619000000     8.576000000
O    -4.321000000    -7.621000000     2.622000000
H    -4.694000000    -6.798000000     2.305000000
H    -3.375000000    -7.477000000     2.606000000
O    -1.899000000    -6.535000000     1.797000000
H    -2.295000000    -5.668000000     1.709000000
H    -1.477000000    -6.521000000     2.656000000
O    -2.840000000    -7.492000000    -1.138000000
H    -3.509000000    -8.140000000    -1.359000000
H    -3.330000000    -6.684000000    -0.986000000
O    -4.366000000    -5.384000000    -4.145000000
H    -4.939000000    -4.618000000    -4.192000000
H    -4.304000000    -5.580000000    -3.210000000
O    -3.174000000    -8.344000000     6.313000000
H    -3.120000000    -7.963000000     5.436000000
H    -2.404000000    -8.005000000     6.769000000
O    -4.265000000    -4.832000000    -1.111000000
H    -5.038000000    -4.479000000    -1.551000000
H    -3.976000000    -4.126000000    -0.533000000
O    -4.077000000    -2.037000000     7.679000000
H    -3.708000000    -2.764000000     7.177000000
H    -5.017000000    -2.218000000     7.707000000
O    -2.855000000    -4.568000000     6.643000000
H    -3.361000000    -4.760000000     5.854000000
H    -3.338000000    -5.000000000     7.348000000
O    -1.155000000    -5.359000000     4.330000000
H    -1.499000000    -4.920000000     5.108000000
H    -1.566000000    -4.902000000     3.596000000
O    -6.861000000    -2.505000000     4.351000000
H    -6.651000000    -2.348000000     3.431000000
H    -6.249000000    -3.188000000     4.624000000
O    -4.474000000    -4.481000000     4.310000000
H    -3.759000000    -4.003000000     3.890000000
H    -4.928000000    -4.915000000     3.588000000
O    -2.638000000    -9.753000000     1.306000000
H    -3.100000000    -8.942000000     1.092000000
H    -2.525000000   -10.195000000     0.465000000
O     0.973000000    -6.322000000     5.771000000
H     0.779000000    -5.848000000     6.579000000
H     0.369000000    -5.955000000     5.126000000
O     0.087000000    -8.094000000     0.457000000
H    -0.736000000    -7.977000000     0.931000000
H     0.245000000    -7.248000000     0.038000000
