215
-1439.70557
C    -3.672000000     0.159000000     2.622000000
H    -3.648000000    -0.883000000     2.313000000
C    -3.943000000     1.096000000     1.625000000
C    -3.833000000     2.488000000     1.863000000
H    -4.002000000     3.267000000     1.124000000
C    -4.052000000     0.564000000     0.183000000
O    -4.680000000    -0.737000000     0.023000000
H    -2.995000000     0.514000000    -0.117000000
O    -4.740000000     1.489000000    -0.697000000
C    -4.122000000     1.667000000    -1.954000000
C    -3.321000000     2.757000000    -1.999000000
H    -3.300000000     3.480000000    -1.188000000
C    -2.426000000     2.904000000    -3.046000000
O    -1.557000000     3.966000000    -3.022000000
C    -2.232000000     1.961000000    -4.036000000
C    -1.125000000     2.017000000    -5.063000000
H    -1.474000000     1.378000000    -5.878000000
C     0.225000000     1.557000000    -4.657000000
C     0.631000000     0.256000000    -4.913000000
H     0.066000000    -0.356000000    -5.611000000
H    -1.030000000     2.996000000    -5.536000000
C    -3.026000000     0.784000000    -3.927000000
H    -2.972000000    -0.062000000    -4.607000000
C    -4.011000000     0.686000000    -2.889000000
C    -4.879000000    -0.589000000    -2.792000000
H    -5.204000000    -0.916000000    -3.782000000
H    -5.838000000    -0.519000000    -2.275000000
C    -4.131000000    -1.755000000    -2.078000000
C    -3.326000000    -2.681000000    -2.799000000
H    -3.344000000    -2.668000000    -3.886000000
C    -4.073000000    -1.715000000    -0.672000000
C    -3.371000000    -2.744000000    -0.052000000
H    -3.195000000    -2.661000000     1.017000000
C    -2.638000000    -3.659000000    -0.827000000
O    -1.917000000    -4.600000000    -0.097000000
C    -0.637000000    -4.379000000     0.238000000
C    -0.321000000    -4.852000000     1.613000000
C     0.952000000    -5.208000000     1.956000000
H     1.738000000    -5.142000000     1.208000000
C    -1.239000000    -4.771000000     2.640000000
H    -2.274000000    -4.474000000     2.494000000
O     0.151000000    -5.169000000    -0.661000000
H    -0.397000000    -3.338000000    -0.026000000
C    -2.534000000    -3.632000000    -2.197000000
C    -1.568000000    -4.582000000    -2.942000000
H    -1.945000000    -4.525000000    -3.965000000
H    -1.688000000    -5.611000000    -2.596000000
C    -0.138000000    -4.204000000    -2.881000000
C     0.306000000    -3.300000000    -3.841000000
H    -0.356000000    -3.088000000    -4.676000000
C     0.652000000    -4.501000000    -1.801000000
C     1.895000000    -3.938000000    -1.747000000
H     2.471000000    -4.069000000    -0.835000000
C     2.416000000    -3.081000000    -2.710000000
O     3.616000000    -2.403000000    -2.395000000
C     3.391000000    -1.047000000    -1.878000000
C     4.242000000    -0.786000000    -0.622000000
C     4.774000000    -1.874000000     0.107000000
H     4.700000000    -2.906000000    -0.225000000
C     4.385000000     0.580000000    -0.092000000
H     3.816000000     1.399000000    -0.524000000
O     3.665000000    -0.042000000    -2.873000000
H     2.351000000    -1.028000000    -1.520000000
C     1.606000000    -2.775000000    -3.836000000
C     2.106000000    -1.772000000    -4.837000000
H     1.673000000    -2.044000000    -5.802000000
H     3.191000000    -1.847000000    -4.938000000
C     1.841000000    -0.292000000    -4.434000000
C     2.664000000     0.472000000    -3.626000000
C     2.323000000     1.797000000    -3.361000000
H     2.962000000     2.398000000    -2.719000000
C     1.066000000     2.273000000    -3.765000000
O     0.698000000     3.552000000    -3.377000000
C    -0.254000000     3.803000000    -2.346000000
H    -0.233000000     2.923000000    -1.687000000
C     0.152000000     4.951000000    -1.470000000
C    -0.812000000     5.754000000    -0.920000000
H    -1.874000000     5.557000000    -1.044000000
C     1.509000000     5.074000000    -1.118000000
H     2.198000000     4.324000000    -1.497000000
C     1.816000000     6.120000000    -0.252000000
O     3.143000000     6.287000000     0.118000000
C     0.860000000     7.083000000     0.151000000
H     1.181000000     7.963000000     0.703000000
C    -0.457000000     6.753000000    -0.113000000
O    -1.488000000     7.564000000     0.420000000
C    -2.582000000     7.012000000     1.067000000
C    -2.382000000     6.035000000     2.038000000
H    -1.359000000     5.733000000     2.246000000
C    -3.871000000     7.255000000     0.571000000
H    -3.986000000     7.833000000    -0.342000000
C    -4.949000000     6.568000000     1.138000000
H    -5.965000000     6.727000000     0.784000000
C    -4.751000000     5.625000000     2.163000000
H    -5.581000000     5.107000000     2.637000000
C    -3.486000000     5.386000000     2.666000000
O    -3.228000000     4.300000000     3.476000000
C    -3.520000000     2.976000000     3.141000000
C    -3.149000000     2.051000000     4.074000000
H    -2.922000000     2.432000000     5.067000000
C    -3.292000000     0.664000000     3.873000000
O    -2.764000000    -0.084000000     4.873000000
C    -3.110000000    -1.446000000     4.977000000
C    -2.168000000    -2.436000000     4.900000000
H    -1.122000000    -2.267000000     4.656000000
C    -4.376000000    -1.790000000     5.519000000
H    -5.078000000    -0.982000000     5.709000000
C    -4.759000000    -3.108000000     5.671000000
H    -5.783000000    -3.275000000     5.996000000
C    -3.807000000    -4.089000000     5.493000000
H    -4.028000000    -5.124000000     5.741000000
C    -2.551000000    -3.735000000     5.041000000
O    -1.655000000    -4.748000000     4.947000000
C    -0.771000000    -4.997000000     3.947000000
C     0.487000000    -5.463000000     4.196000000
H     0.649000000    -5.817000000     5.210000000
C     1.396000000    -5.563000000     3.227000000
O     2.717000000    -5.855000000     3.505000000
C     3.892000000    -5.545000000     2.864000000
C     4.296000000    -4.184000000     2.598000000
H     3.648000000    -3.351000000     2.859000000
C     4.762000000    -6.524000000     2.546000000
H     4.558000000    -7.546000000     2.855000000
C     6.097000000    -6.274000000     2.153000000
H     6.793000000    -7.098000000     2.017000000
C     6.521000000    -4.970000000     2.042000000
H     7.530000000    -4.719000000     1.728000000
C     5.593000000    -3.920000000     2.145000000
O     6.080000000    -2.609000000     2.051000000
C     5.543000000    -1.641000000     1.262000000
C     5.691000000    -0.257000000     1.697000000
H     6.291000000    -0.017000000     2.570000000
C     5.107000000     0.852000000     1.006000000
O     5.160000000     2.214000000     1.398000000
C     5.113000000     3.328000000     0.559000000
C     6.122000000     3.563000000    -0.391000000
H     6.929000000     2.837000000    -0.440000000
C     6.133000000     4.675000000    -1.218000000
H     6.900000000     4.737000000    -1.986000000
C     5.199000000     5.676000000    -0.966000000
H     5.284000000     6.617000000    -1.506000000
C     4.134000000     5.414000000    -0.087000000
C     4.061000000     4.294000000     0.723000000
H     3.228000000     4.185000000     1.413000000
C     1.358000000    -0.633000000     2.410000000
H     2.018000000    -1.295000000     2.964000000
C     1.031000000    -1.051000000     1.150000000
H     1.431000000    -1.999000000     0.798000000
C     0.209000000    -0.261000000     0.388000000
H    -0.036000000    -0.613000000    -0.609000000
C    -0.295000000     0.894000000     0.912000000
H    -0.953000000     1.489000000     0.284000000
C     0.006000000     1.365000000     2.188000000
H    -0.455000000     2.249000000     2.620000000
C     0.851000000     0.576000000     2.985000000
C     1.185000000     0.985000000     4.340000000
O     0.564000000     1.896000000     4.817000000
O     1.921000000     0.355000000     5.076000000
O     6.449000000     0.144000000     5.109000000
H     6.122000000    -0.337000000     5.870000000
H     6.020000000     0.998000000     5.163000000
O     1.898000000     0.618000000     7.850000000
H     1.150000000     1.188000000     8.030000000
H     1.928000000     0.556000000     6.895000000
O     1.067000000    -4.067000000     8.386000000
H     1.490000000    -3.482000000     9.014000000
H     1.532000000    -3.912000000     7.564000000
O     4.475000000     1.949000000     5.016000000
H     3.839000000     1.237000000     5.091000000
H     3.942000000     2.733000000     4.883000000
O     3.054000000     5.359000000     7.565000000
H     2.803000000     6.279000000     7.646000000
H     3.508000000     5.161000000     8.384000000
O     5.837000000     3.011000000     8.234000000
H     5.588000000     3.005000000     7.310000000
H     5.209000000     2.424000000     8.655000000
O    -1.071000000    -1.196000000     7.580000000
H    -1.894000000    -1.682000000     7.632000000
H    -1.106000000    -0.585000000     8.316000000
O     4.334000000     0.803000000     9.145000000
H     3.547000000     0.665000000     8.618000000
H     4.196000000     0.268000000     9.926000000
O     3.233000000    -4.206000000     6.383000000
H     3.096000000    -3.261000000     6.313000000
H     4.185000000    -4.311000000     6.374000000
O    -0.778000000     1.816000000     7.148000000
H    -1.260000000     1.024000000     6.909000000
H    -0.347000000     2.088000000     6.339000000
O     2.719000000     4.029000000     5.325000000
H     2.900000000     4.287000000     6.229000000
H     1.856000000     3.616000000     5.362000000
O     5.195000000     5.506000000     4.464000000
H     4.261000000     5.360000000     4.618000000
H     5.346000000     6.408000000     4.745000000
O     1.554000000    -2.006000000     6.144000000
H     0.954000000    -1.731000000     6.837000000
H     1.687000000    -1.220000000     5.615000000
O     2.363000000     6.384000000     4.069000000
H     2.404000000     5.525000000     4.489000000
H     3.012000000     6.338000000     3.366000000
O    -1.025000000     6.500000000     7.032000000
H    -0.831000000     5.825000000     6.381000000
H    -1.947000000     6.364000000     7.250000000
O     2.131000000    -1.712000000     9.727000000
H     2.650000000    -1.381000000    10.460000000
H     2.164000000    -1.011000000     9.076000000
O    -0.081000000     4.397000000     5.132000000
H    -0.943000000     4.497000000     4.728000000
H     0.136000000     3.473000000     5.006000000
O     0.539000000     3.824000000     8.746000000
H    -0.028000000     3.152000000     8.365000000
H     0.787000000     4.376000000     8.004000000
O     6.983000000     3.162000000     3.804000000
H     6.361000000     2.483000000     3.541000000
H     6.437000000     3.856000000     4.174000000
