215
-1447.28185
C    -3.232000000    -0.277000000     2.719000000
H    -2.828000000    -1.201000000     2.313000000
C    -3.957000000     0.617000000     1.858000000
C    -4.374000000     1.877000000     2.365000000
H    -5.006000000     2.494000000     1.732000000
C    -4.173000000     0.106000000     0.483000000
O    -4.828000000    -1.141000000     0.318000000
H    -3.169000000     0.092000000     0.035000000
O    -4.978000000     0.977000000    -0.286000000
C    -4.379000000     1.348000000    -1.410000000
C    -3.653000000     2.497000000    -1.336000000
H    -3.676000000     3.059000000    -0.406000000
C    -2.840000000     2.876000000    -2.348000000
O    -2.105000000     4.009000000    -2.108000000
C    -2.756000000     2.070000000    -3.509000000
C    -1.873000000     2.594000000    -4.635000000
H    -2.212000000     2.011000000    -5.493000000
C    -0.417000000     2.213000000    -4.416000000
C     0.017000000     1.005000000    -4.898000000
H    -0.696000000     0.403000000    -5.456000000
H    -2.074000000     3.654000000    -4.809000000
C    -3.528000000     0.892000000    -3.601000000
H    -3.475000000     0.283000000    -4.499000000
C    -4.394000000     0.588000000    -2.546000000
C    -5.165000000    -0.685000000    -2.668000000
H    -5.477000000    -0.905000000    -3.691000000
H    -6.135000000    -0.523000000    -2.192000000
C    -4.333000000    -1.822000000    -2.098000000
C    -3.570000000    -2.614000000    -2.934000000
H    -3.553000000    -2.446000000    -4.008000000
C    -4.241000000    -1.940000000    -0.699000000
C    -3.451000000    -2.968000000    -0.134000000
H    -3.455000000    -3.183000000     0.932000000
C    -2.702000000    -3.829000000    -0.966000000
O    -1.863000000    -4.671000000    -0.431000000
C    -0.401000000    -4.379000000    -0.304000000
C     0.181000000    -4.930000000     0.958000000
C     1.480000000    -5.390000000     1.041000000
H     1.995000000    -5.455000000     0.086000000
C    -0.517000000    -4.745000000     2.129000000
H    -1.557000000    -4.431000000     2.126000000
O     0.308000000    -4.970000000    -1.444000000
H    -0.296000000    -3.285000000    -0.353000000
C    -2.751000000    -3.570000000    -2.372000000
C    -1.762000000    -4.280000000    -3.337000000
H    -2.129000000    -4.146000000    -4.357000000
H    -1.550000000    -5.346000000    -3.236000000
C    -0.340000000    -3.654000000    -3.347000000
C    -0.009000000    -2.673000000    -4.293000000
H    -0.826000000    -2.408000000    -4.958000000
C     0.586000000    -4.107000000    -2.444000000
C     1.758000000    -3.380000000    -2.378000000
H     2.452000000    -3.629000000    -1.579000000
C     2.108000000    -2.451000000    -3.270000000
O     3.233000000    -1.722000000    -2.977000000
C     3.230000000    -0.405000000    -2.364000000
C     4.328000000    -0.337000000    -1.317000000
C     4.854000000    -1.463000000    -0.703000000
H     4.632000000    -2.485000000    -0.998000000
C     4.752000000     0.919000000    -0.881000000
H     4.429000000     1.769000000    -1.477000000
O     3.322000000     0.600000000    -3.392000000
H     2.251000000    -0.325000000    -1.869000000
C     1.216000000    -2.068000000    -4.286000000
C     1.536000000    -0.886000000    -5.198000000
H     1.128000000    -1.030000000    -6.201000000
H     2.619000000    -0.814000000    -5.314000000
C     1.239000000     0.452000000    -4.593000000
C     2.159000000     1.203000000    -3.840000000
C     1.722000000     2.448000000    -3.272000000
H     2.332000000     3.040000000    -2.595000000
C     0.439000000     2.907000000    -3.565000000
O     0.063000000     4.025000000    -2.847000000
C    -0.691000000     3.782000000    -1.686000000
H    -0.530000000     2.770000000    -1.285000000
C    -0.185000000     4.686000000    -0.580000000
C    -0.996000000     5.043000000     0.485000000
H    -2.040000000     4.764000000     0.371000000
C     1.144000000     5.112000000    -0.568000000
H     1.827000000     4.976000000    -1.402000000
C     1.646000000     5.746000000     0.592000000
O     3.018000000     6.123000000     0.650000000
C     0.776000000     6.182000000     1.621000000
H     1.142000000     6.737000000     2.481000000
C    -0.570000000     5.872000000     1.478000000
O    -1.363000000     6.422000000     2.422000000
C    -2.683000000     6.143000000     2.776000000
C    -3.017000000     4.874000000     3.240000000
H    -2.266000000     4.092000000     3.173000000
C    -3.641000000     7.094000000     2.637000000
H    -3.389000000     8.081000000     2.255000000
C    -4.995000000     6.800000000     3.104000000
H    -5.693000000     7.632000000     3.111000000
C    -5.220000000     5.573000000     3.670000000
H    -6.138000000     5.460000000     4.243000000
C    -4.276000000     4.611000000     3.711000000
O    -4.504000000     3.349000000     4.227000000
C    -4.025000000     2.192000000     3.659000000
C    -3.209000000     1.339000000     4.441000000
H    -2.956000000     1.664000000     5.447000000
C    -2.835000000     0.076000000     4.006000000
O    -2.118000000    -0.760000000     4.871000000
C    -2.343000000    -2.084000000     5.130000000
C    -1.382000000    -2.958000000     4.691000000
H    -0.446000000    -2.619000000     4.255000000
C    -3.415000000    -2.511000000     5.890000000
H    -4.126000000    -1.736000000     6.167000000
C    -3.565000000    -3.806000000     6.230000000
H    -4.497000000    -4.178000000     6.647000000
C    -2.641000000    -4.725000000     5.720000000
H    -2.722000000    -5.759000000     6.046000000
C    -1.601000000    -4.302000000     4.893000000
O    -0.703000000    -5.205000000     4.534000000
C    -0.003000000    -5.213000000     3.374000000
C     1.370000000    -5.506000000     3.457000000
H     1.850000000    -5.896000000     4.351000000
C     2.123000000    -5.567000000     2.264000000
O     3.281000000    -6.209000000     2.384000000
C     4.372000000    -5.643000000     1.701000000
C     4.742000000    -4.235000000     1.765000000
H     4.296000000    -3.492000000     2.421000000
C     5.319000000    -6.499000000     1.013000000
H     5.307000000    -7.586000000     1.012000000
C     6.361000000    -5.937000000     0.282000000
H     7.061000000    -6.543000000    -0.286000000
C     6.416000000    -4.546000000     0.114000000
H     7.228000000    -4.109000000    -0.461000000
C     5.718000000    -3.756000000     0.928000000
O     6.180000000    -2.434000000     1.120000000
C     5.673000000    -1.295000000     0.422000000
C     6.100000000    -0.079000000     0.828000000
H     6.809000000     0.087000000     1.636000000
C     5.640000000     1.014000000     0.171000000
O     5.956000000     2.257000000     0.726000000
C     5.561000000     3.467000000     0.180000000
C     6.335000000     4.080000000    -0.798000000
H     7.216000000     3.570000000    -1.181000000
C     6.011000000     5.289000000    -1.313000000
H     6.504000000     5.795000000    -2.139000000
C     4.953000000     6.020000000    -0.831000000
H     4.713000000     7.003000000    -1.228000000
C     4.120000000     5.415000000     0.178000000
C     4.479000000     4.187000000     0.741000000
H     3.932000000     3.779000000     1.588000000
C     1.329000000    -0.202000000     2.060000000
H     2.223000000    -0.650000000     2.487000000
C     0.870000000    -0.689000000     0.827000000
H     1.300000000    -1.582000000     0.380000000
C    -0.086000000     0.054000000     0.122000000
H    -0.429000000    -0.327000000    -0.801000000
C    -0.640000000     1.190000000     0.643000000
H    -1.487000000     1.646000000     0.137000000
C    -0.231000000     1.594000000     1.918000000
H    -0.772000000     2.317000000     2.523000000
C     0.768000000     0.938000000     2.685000000
C     1.145000000     1.383000000     4.053000000
O     0.725000000     2.418000000     4.570000000
O     1.832000000     0.687000000     4.751000000
O     4.701000000    -2.676000000     5.197000000
H     4.941000000    -1.755000000     5.098000000
H     5.493000000    -3.157000000     4.956000000
O    -0.425000000     0.809000000     6.877000000
H     0.041000000     0.981000000     6.059000000
H     0.208000000     1.021000000     7.563000000
O     0.470000000    -1.776000000     7.068000000
H     0.138000000    -0.935000000     6.755000000
H     1.209000000    -1.971000000     6.491000000
O    -3.000000000     0.537000000     7.768000000
H    -2.103000000     0.458000000     7.443000000
H    -3.081000000     1.455000000     8.026000000
O     1.192000000     6.562000000     5.007000000
H     0.238000000     6.547000000     5.088000000
H     1.462000000     5.664000000     5.201000000
O     4.769000000     0.087000000     4.846000000
H     4.577000000     0.470000000     5.702000000
H     4.257000000     0.611000000     4.230000000
O     1.331000000     1.727000000     8.936000000
H     0.902000000     1.339000000     9.698000000
H     2.137000000     1.220000000     8.831000000
O     0.785000000     6.189000000     8.729000000
H     1.086000000     6.994000000     8.308000000
H     0.630000000     5.583000000     8.005000000
O     7.481000000     0.328000000     3.979000000
H     6.753000000     0.317000000     4.600000000
H     7.885000000    -0.536000000     4.066000000
O    -1.207000000     3.622000000     5.792000000
H    -0.510000000     3.015000000     5.546000000
H    -1.350000000     3.458000000     6.724000000
O     5.620000000     1.930000000     7.708000000
H     6.050000000     1.472000000     8.430000000
H     4.689000000     1.735000000     7.821000000
O     2.108000000    -2.145000000     4.859000000
H     3.034000000    -2.330000000     4.703000000
H     2.019000000    -1.207000000     4.690000000
O    -2.376000000     3.086000000     8.472000000
H    -2.716000000     3.678000000     9.143000000
H    -1.760000000     2.523000000     8.939000000
O     1.535000000     3.885000000     6.758000000
H     1.320000000     3.312000000     6.022000000
H     1.452000000     3.325000000     7.530000000
O     3.506000000     4.092000000     4.824000000
H     3.040000000     4.045000000     5.659000000
H     2.814000000     4.168000000     4.168000000
O    -1.387000000     6.407000000     5.577000000
H    -1.902000000     6.676000000     6.338000000
H    -1.556000000     5.468000000     5.494000000
O     3.459000000     0.445000000     7.844000000
H     3.724000000    -0.474000000     7.868000000
H     2.666000000     0.452000000     7.307000000
O     3.930000000    -2.114000000     7.941000000
H     3.552000000    -2.901000000     8.333000000
H     4.054000000    -2.341000000     7.020000000
O     5.992000000     3.386000000     5.381000000
H     5.844000000     2.829000000     6.145000000
H     5.128000000     3.742000000     5.174000000
