215
-1465.35249
C    -2.103000000    -1.924000000     2.944000000
H    -1.338000000    -2.572000000     2.525000000
C    -3.166000000    -1.404000000     2.300000000
C    -4.014000000    -0.493000000     3.000000000
H    -4.852000000    -0.081000000     2.443000000
C    -3.432000000    -1.750000000     0.834000000
O    -3.287000000    -3.202000000     0.602000000
H    -2.658000000    -1.246000000     0.237000000
O    -4.692000000    -1.289000000     0.275000000
C    -4.556000000    -0.565000000    -0.875000000
C    -4.475000000     0.817000000    -0.839000000
H    -4.754000000     1.431000000     0.014000000
C    -4.078000000     1.535000000    -1.894000000
O    -3.865000000     2.903000000    -1.756000000
C    -3.811000000     0.897000000    -3.109000000
C    -3.210000000     1.657000000    -4.318000000
H    -3.448000000     1.014000000    -5.168000000
C    -1.717000000     1.842000000    -4.110000000
C    -0.895000000     0.996000000    -4.831000000
H    -1.323000000     0.123000000    -5.317000000
H    -3.821000000     2.545000000    -4.491000000
C    -3.788000000    -0.480000000    -3.097000000
H    -3.346000000    -0.939000000    -3.979000000
C    -4.237000000    -1.278000000    -2.041000000
C    -4.301000000    -2.757000000    -2.117000000
H    -4.648000000    -3.048000000    -3.110000000
H    -5.070000000    -3.145000000    -1.446000000
C    -2.964000000    -3.407000000    -1.807000000
C    -2.095000000    -3.665000000    -2.833000000
H    -2.318000000    -3.294000000    -3.830000000
C    -2.650000000    -3.772000000    -0.490000000
C    -1.457000000    -4.464000000    -0.237000000
H    -1.178000000    -4.524000000     0.812000000
C    -0.558000000    -4.727000000    -1.225000000
O     0.672000000    -5.078000000    -0.735000000
C     1.704000000    -4.074000000    -0.598000000
C     2.496000000    -4.291000000     0.692000000
C     3.723000000    -3.656000000     0.810000000
H     4.137000000    -3.145000000    -0.056000000
C     2.019000000    -4.995000000     1.784000000
H     1.080000000    -5.527000000     1.662000000
O     2.575000000    -4.087000000    -1.742000000
H     1.098000000    -3.156000000    -0.600000000
C    -0.823000000    -4.271000000    -2.566000000
C     0.242000000    -4.496000000    -3.590000000
H    -0.305000000    -4.585000000    -4.531000000
H     0.771000000    -5.442000000    -3.461000000
C     1.214000000    -3.292000000    -3.624000000
C     0.895000000    -2.167000000    -4.441000000
H     0.002000000    -2.270000000    -5.053000000
C     2.362000000    -3.238000000    -2.764000000
C     3.150000000    -2.054000000    -2.680000000
H     3.970000000    -2.006000000    -1.968000000
C     2.900000000    -1.010000000    -3.583000000
O     3.669000000     0.177000000    -3.482000000
C     2.980000000     1.253000000    -2.792000000
C     3.844000000     1.853000000    -1.709000000
C     4.964000000     1.148000000    -1.241000000
H     5.203000000     0.136000000    -1.556000000
C     3.516000000     3.082000000    -1.155000000
H     2.552000000     3.521000000    -1.400000000
O     2.427000000     2.254000000    -3.722000000
H     2.079000000     0.888000000    -2.277000000
C     1.726000000    -1.066000000    -4.384000000
C     1.466000000     0.041000000    -5.354000000
H     1.018000000    -0.270000000    -6.300000000
H     2.440000000     0.423000000    -5.664000000
C     0.517000000     1.062000000    -4.699000000
C     1.067000000     2.164000000    -4.031000000
C     0.206000000     2.991000000    -3.332000000
H     0.640000000     3.801000000    -2.750000000
C    -1.205000000     3.021000000    -3.521000000
O    -2.050000000     3.811000000    -2.781000000
C    -2.504000000     3.304000000    -1.488000000
H    -1.870000000     2.435000000    -1.259000000
C    -2.438000000     4.224000000    -0.250000000
C    -3.410000000     4.170000000     0.738000000
H    -4.252000000     3.497000000     0.602000000
C    -1.498000000     5.204000000    -0.237000000
H    -0.785000000     5.298000000    -1.053000000
C    -1.381000000     6.036000000     0.877000000
O    -0.394000000     6.982000000     0.871000000
C    -2.252000000     5.872000000     1.975000000
H    -2.167000000     6.618000000     2.760000000
C    -3.300000000     4.984000000     1.886000000
O    -4.290000000     4.983000000     2.808000000
C    -4.991000000     4.009000000     3.403000000
C    -4.415000000     2.866000000     3.909000000
H    -3.354000000     2.665000000     3.783000000
C    -6.332000000     4.221000000     3.524000000
H    -6.745000000     5.149000000     3.136000000
C    -7.112000000     3.323000000     4.212000000
H    -8.171000000     3.488000000     4.390000000
C    -6.577000000     2.067000000     4.587000000
H    -7.166000000     1.364000000     5.170000000
C    -5.202000000     1.814000000     4.402000000
O    -4.617000000     0.742000000     5.062000000
C    -3.760000000    -0.152000000     4.342000000
C    -2.690000000    -0.672000000     4.983000000
H    -2.360000000    -0.336000000     5.962000000
C    -1.838000000    -1.495000000     4.261000000
O    -0.753000000    -2.074000000     4.939000000
C    -0.544000000    -3.406000000     5.077000000
C     0.679000000    -3.902000000     4.660000000
H     1.374000000    -3.174000000     4.250000000
C    -1.530000000    -4.271000000     5.533000000
H    -2.511000000    -3.936000000     5.860000000
C    -1.261000000    -5.652000000     5.455000000
H    -2.090000000    -6.308000000     5.707000000
C     0.009000000    -6.168000000     5.089000000
H     0.163000000    -7.242000000     5.024000000
C     0.980000000    -5.263000000     4.663000000
O     2.185000000    -5.657000000     4.079000000
C     2.687000000    -4.979000000     2.984000000
C     3.844000000    -4.292000000     3.127000000
H     4.408000000    -4.272000000     4.056000000
C     4.471000000    -3.688000000     1.998000000
O     5.796000000    -3.228000000     2.063000000
C     6.494000000    -2.420000000     1.255000000
C     6.232000000    -1.098000000     1.234000000
H     5.552000000    -0.634000000     1.944000000
C     7.402000000    -3.014000000     0.322000000
H     7.564000000    -4.073000000     0.505000000
C     8.018000000    -2.339000000    -0.659000000
H     8.620000000    -2.764000000    -1.458000000
C     7.778000000    -0.964000000    -0.634000000
H     8.197000000    -0.288000000    -1.374000000
C     6.886000000    -0.385000000     0.283000000
O     6.830000000     0.978000000     0.318000000
C     5.768000000     1.596000000    -0.211000000
C     5.351000000     2.825000000     0.412000000
H     5.952000000     3.127000000     1.266000000
C     4.199000000     3.543000000    -0.006000000
O     3.807000000     4.686000000     0.652000000
C     2.912000000     5.657000000     0.164000000
C     3.196000000     6.411000000    -0.969000000
H     4.206000000     6.312000000    -1.359000000
C     2.289000000     7.259000000    -1.577000000
H     2.535000000     7.807000000    -2.483000000
C     1.050000000     7.450000000    -0.954000000
H     0.234000000     8.113000000    -1.230000000
C     0.831000000     6.777000000     0.293000000
C     1.726000000     5.878000000     0.820000000
H     1.551000000     5.253000000     1.692000000
C     1.840000000    -0.042000000     1.849000000
H     2.819000000    -0.422000000     2.131000000
C     1.417000000    -0.294000000     0.492000000
H     2.142000000    -0.807000000    -0.136000000
C     0.216000000     0.160000000     0.070000000
H    -0.167000000    -0.030000000    -0.954000000
C    -0.624000000     0.880000000     0.929000000
H    -1.623000000     1.171000000     0.615000000
C    -0.187000000     1.234000000     2.203000000
H    -0.864000000     1.839000000     2.800000000
C     1.055000000     0.730000000     2.703000000
C     1.429000000     1.074000000     4.148000000
O     0.719000000     1.820000000     4.754000000
O     2.568000000     0.856000000     4.563000000
O     1.351000000     5.518000000     7.472000000
H     1.814000000     4.775000000     7.085000000
H     2.006000000     5.950000000     8.020000000
O     2.793000000     3.247000000     9.115000000
H     2.835000000     3.383000000     8.169000000
H     1.927000000     2.867000000     9.265000000
O     7.153000000    -0.300000000     4.677000000
H     7.405000000     0.534000000     5.073000000
H     6.357000000    -0.101000000     4.185000000
O    -0.196000000     0.090000000     7.323000000
H     0.379000000     0.232000000     6.572000000
H    -0.015000000    -0.809000000     7.597000000
O     5.279000000     2.964000000     5.969000000
H     5.299000000     2.848000000     5.019000000
H     5.912000000     2.328000000     6.302000000
O     2.871000000     7.246000000     3.648000000
H     2.088000000     6.817000000     3.993000000
H     3.109000000     7.886000000     4.318000000
O     4.235000000    -1.336000000     4.224000000
H     3.613000000    -0.612000000     4.302000000
H     4.280000000    -1.708000000     5.105000000
O     4.347000000     2.361000000     3.283000000
H     3.980000000     2.941000000     2.616000000
H     3.584000000     1.955000000     3.693000000
O     2.431000000    -0.309000000     9.562000000
H     2.047000000     0.558000000     9.696000000
H     3.121000000    -0.168000000     8.914000000
O     0.381000000     1.927000000     9.437000000
H     0.238000000     1.368000000     8.673000000
H    -0.186000000     1.556000000    10.114000000
O    -0.299000000     4.198000000     4.466000000
H    -1.105000000     3.780000000     4.769000000
H     0.378000000     3.534000000     4.595000000
O    -1.785000000     2.483000000     6.108000000
H    -2.051000000     2.284000000     7.005000000
H    -0.912000000     2.099000000     6.026000000
O     0.750000000     6.584000000     5.022000000
H     0.238000000     5.900000000     4.589000000
H     0.793000000     6.308000000     5.937000000
O     7.385000000     2.111000000     3.051000000
H     6.802000000     1.561000000     2.528000000
H     8.242000000     1.692000000     2.975000000
O     3.784000000    -0.197000000     7.024000000
H     4.735000000    -0.096000000     7.000000000
H     3.484000000     0.153000000     6.184000000
O     0.639000000    -2.133000000     8.251000000
H     1.260000000    -1.914000000     8.946000000
H     0.848000000    -3.038000000     8.019000000
O     5.078000000     1.811000000     9.369000000
H     5.619000000     2.564000000     9.606000000
H     4.300000000     2.193000000     8.963000000
O     2.625000000     3.349000000     6.318000000
H     2.099000000     2.743000000     5.796000000
H     3.512000000     3.256000000     5.972000000
O    -3.209000000     5.031000000     6.229000000
H    -2.720000000     5.326000000     6.997000000
H    -2.759000000     4.234000000     5.949000000
