215
-1454.63659
C    -3.132000000    -2.509000000     2.982000000
H    -2.645000000    -3.269000000     2.377000000
C    -3.919000000    -1.604000000     2.234000000
C    -4.510000000    -0.499000000     2.908000000
H    -5.024000000     0.290000000     2.364000000
C    -3.817000000    -1.668000000     0.733000000
O    -3.710000000    -3.036000000     0.272000000
H    -2.860000000    -1.245000000     0.392000000
O    -4.856000000    -1.031000000     0.038000000
C    -4.461000000    -0.290000000    -1.071000000
C    -4.247000000     1.010000000    -0.860000000
H    -4.544000000     1.459000000     0.084000000
C    -3.782000000     1.851000000    -1.876000000
O    -3.522000000     3.130000000    -1.537000000
C    -3.541000000     1.378000000    -3.169000000
C    -2.893000000     2.240000000    -4.271000000
H    -3.180000000     1.876000000    -5.260000000
C    -1.329000000     2.281000000    -4.048000000
C    -0.554000000     1.435000000    -4.815000000
H    -0.962000000     0.800000000    -5.597000000
H    -3.210000000     3.267000000    -4.074000000
C    -3.764000000     0.000000000    -3.350000000
H    -3.576000000    -0.469000000    -4.313000000
C    -4.261000000    -0.847000000    -2.319000000
C    -4.348000000    -2.310000000    -2.581000000
H    -4.400000000    -2.381000000    -3.670000000
H    -5.236000000    -2.812000000    -2.192000000
C    -3.097000000    -3.000000000    -2.074000000
C    -2.121000000    -3.284000000    -3.008000000
H    -2.141000000    -2.922000000    -4.033000000
C    -2.886000000    -3.345000000    -0.722000000
C    -1.665000000    -3.960000000    -0.356000000
H    -1.453000000    -4.224000000     0.677000000
C    -0.653000000    -4.194000000    -1.296000000
O     0.453000000    -4.812000000    -0.845000000
C     1.732000000    -4.037000000    -0.802000000
C     2.603000000    -4.426000000     0.436000000
C     3.973000000    -4.225000000     0.454000000
H     4.508000000    -3.834000000    -0.408000000
C     1.898000000    -4.803000000     1.553000000
H     0.830000000    -4.990000000     1.477000000
O     2.514000000    -4.188000000    -2.050000000
H     1.508000000    -2.964000000    -0.707000000
C    -0.924000000    -3.918000000    -2.597000000
C     0.070000000    -4.179000000    -3.709000000
H    -0.446000000    -4.289000000    -4.666000000
H     0.557000000    -5.150000000    -3.601000000
C     1.146000000    -3.075000000    -3.751000000
C     1.030000000    -2.039000000    -4.564000000
H     0.136000000    -1.995000000    -5.181000000
C     2.279000000    -3.107000000    -2.907000000
C     3.175000000    -2.085000000    -2.825000000
H     3.908000000    -2.038000000    -2.023000000
C     2.898000000    -0.967000000    -3.577000000
O     3.697000000     0.147000000    -3.335000000
C     3.098000000     1.176000000    -2.546000000
C     3.988000000     1.738000000    -1.351000000
C     5.099000000     1.040000000    -0.857000000
H     5.493000000     0.108000000    -1.256000000
C     3.528000000     2.899000000    -0.756000000
H     2.732000000     3.499000000    -1.189000000
O     2.687000000     2.318000000    -3.390000000
H     2.205000000     0.769000000    -2.050000000
C     1.888000000    -0.905000000    -4.535000000
C     1.590000000     0.416000000    -5.351000000
H     1.096000000     0.133000000    -6.282000000
H     2.487000000     0.981000000    -5.614000000
C     0.824000000     1.427000000    -4.586000000
C     1.377000000     2.338000000    -3.687000000
C     0.578000000     3.240000000    -2.967000000
H     1.033000000     3.966000000    -2.299000000
C    -0.818000000     3.220000000    -3.149000000
O    -1.587000000     4.049000000    -2.372000000
C    -2.208000000     3.494000000    -1.227000000
H    -1.694000000     2.633000000    -0.774000000
C    -2.257000000     4.509000000    -0.080000000
C    -3.121000000     4.308000000     0.978000000
H    -3.872000000     3.531000000     0.855000000
C    -1.250000000     5.492000000     0.095000000
H    -0.410000000     5.383000000    -0.587000000
C    -1.119000000     6.256000000     1.246000000
O    -0.082000000     7.147000000     1.425000000
C    -2.059000000     6.046000000     2.226000000
H    -2.015000000     6.649000000     3.130000000
C    -3.033000000     5.044000000     2.157000000
O    -3.989000000     5.120000000     3.200000000
C    -4.821000000     4.135000000     3.549000000
C    -4.336000000     2.955000000     4.054000000
H    -3.261000000     2.821000000     4.135000000
C    -6.194000000     4.359000000     3.574000000
H    -6.661000000     5.271000000     3.210000000
C    -7.025000000     3.375000000     4.013000000
H    -8.107000000     3.476000000     4.045000000
C    -6.540000000     2.103000000     4.433000000
H    -7.233000000     1.321000000     4.734000000
C    -5.153000000     1.922000000     4.473000000
O    -4.573000000     0.833000000     5.027000000
C    -4.309000000    -0.316000000     4.310000000
C    -3.519000000    -1.248000000     4.991000000
H    -3.422000000    -1.334000000     6.070000000
C    -3.033000000    -2.365000000     4.371000000
O    -2.257000000    -3.262000000     5.161000000
C    -1.610000000    -4.398000000     4.720000000
C    -0.209000000    -4.366000000     4.491000000
H     0.287000000    -3.452000000     4.809000000
C    -2.238000000    -5.594000000     4.336000000
H    -3.309000000    -5.604000000     4.521000000
C    -1.565000000    -6.630000000     3.739000000
H    -2.049000000    -7.558000000     3.447000000
C    -0.181000000    -6.614000000     3.747000000
H     0.474000000    -7.436000000     3.469000000
C     0.521000000    -5.478000000     4.030000000
O     1.830000000    -5.499000000     3.873000000
C     2.524000000    -4.994000000     2.783000000
C     3.911000000    -4.698000000     2.858000000
H     4.466000000    -4.827000000     3.784000000
C     4.609000000    -4.331000000     1.688000000
O     5.923000000    -4.025000000     1.751000000
C     6.564000000    -2.976000000     1.156000000
C     6.244000000    -1.617000000     1.370000000
H     5.500000000    -1.237000000     2.065000000
C     7.514000000    -3.276000000     0.213000000
H     7.753000000    -4.278000000    -0.134000000
C     8.258000000    -2.269000000    -0.416000000
H     9.074000000    -2.460000000    -1.108000000
C     7.935000000    -0.977000000    -0.244000000
H     8.517000000    -0.215000000    -0.756000000
C     6.973000000    -0.590000000     0.726000000
O     6.805000000     0.783000000     0.918000000
C     5.829000000     1.532000000     0.300000000
C     5.255000000     2.691000000     0.917000000
H     5.637000000     2.999000000     1.887000000
C     4.170000000     3.372000000     0.420000000
O     3.749000000     4.423000000     1.178000000
C     3.109000000     5.541000000     0.773000000
C     3.389000000     6.086000000    -0.489000000
H     4.231000000     5.684000000    -1.047000000
C     2.668000000     7.148000000    -1.055000000
H     2.944000000     7.624000000    -1.992000000
C     1.554000000     7.582000000    -0.273000000
H     0.955000000     8.369000000    -0.724000000
C     1.175000000     6.950000000     0.932000000
C     2.024000000     5.963000000     1.461000000
H     1.788000000     5.483000000     2.407000000
C     1.681000000     0.287000000     1.545000000
H     2.672000000     0.180000000     1.977000000
C     1.256000000     0.053000000     0.267000000
H     2.024000000    -0.354000000    -0.385000000
C    -0.010000000     0.160000000    -0.142000000
H    -0.282000000    -0.125000000    -1.184000000
C    -0.949000000     0.539000000     0.794000000
H    -1.951000000     0.636000000     0.385000000
C    -0.613000000     0.946000000     2.057000000
H    -1.345000000     1.272000000     2.792000000
C     0.780000000     0.778000000     2.409000000
C     1.186000000     1.225000000     3.836000000
O     0.444000000     1.784000000     4.660000000
O     2.189000000     0.596000000     4.173000000
O     0.855000000     5.292000000     7.762000000
H     1.331000000     4.474000000     7.619000000
H     1.520000000     5.905000000     8.075000000
O     5.927000000    -1.829000000     4.799000000
H     6.011000000    -0.883000000     4.676000000
H     4.985000000    -1.978000000     4.870000000
O    -1.210000000     1.473000000     6.853000000
H    -0.709000000     1.368000000     6.044000000
H    -1.583000000     0.607000000     7.019000000
O    -3.546000000    -2.217000000     8.388000000
H    -2.667000000    -2.135000000     8.017000000
H    -3.399000000    -2.356000000     9.323000000
O     5.031000000     2.742000000     7.753000000
H     4.619000000     2.460000000     6.937000000
H     5.165000000     1.933000000     8.246000000
O     1.776000000     8.307000000     4.337000000
H     1.373000000     7.441000000     4.404000000
H     1.600000000     8.718000000     5.183000000
O     3.273000000    -1.953000000     3.887000000
H     2.955000000    -1.051000000     3.853000000
H     3.191000000    -2.271000000     2.988000000
O     4.270000000     2.016000000     5.303000000
H     5.126000000     1.739000000     4.977000000
H     3.691000000     1.278000000     5.112000000
O     4.860000000     6.234000000     2.971000000
H     4.022000000     6.623000000     2.722000000
H     4.911000000     5.427000000     2.458000000
O    -0.945000000     2.221000000     9.559000000
H    -0.310000000     1.698000000    10.050000000
H    -0.741000000     2.045000000     8.641000000
O    -1.235000000     3.886000000     5.270000000
H    -1.644000000     3.497000000     6.044000000
H    -0.729000000     3.173000000     4.883000000
O    -3.374000000     3.546000000     8.406000000
H    -3.971000000     2.833000000     8.632000000
H    -2.510000000     3.226000000     8.663000000
O     0.276000000     6.257000000     5.159000000
H    -0.354000000     5.639000000     4.788000000
H     0.363000000     5.990000000     6.074000000
O     6.665000000     0.805000000     4.506000000
H     7.240000000     1.303000000     3.925000000
H     7.231000000     0.532000000     5.228000000
O     2.958000000    -2.523000000     6.615000000
H     2.370000000    -1.783000000     6.769000000
H     3.058000000    -2.555000000     5.664000000
O     1.488000000     0.031000000     6.839000000
H     1.683000000     0.841000000     7.310000000
H     1.463000000     0.289000000     5.918000000
O    -0.750000000    -1.362000000     7.175000000
H    -0.528000000    -2.261000000     6.935000000
H     0.040000000    -0.859000000     6.976000000
O     1.124000000    -4.406000000     7.529000000
H     1.873000000    -3.940000000     7.902000000
H     1.501000000    -4.953000000     6.840000000
O     1.874000000     3.198000000     6.579000000
H     1.405000000     2.965000000     5.778000000
H     2.784000000     3.305000000     6.302000000
