215
-1431.22642
C    -2.810000000    -3.992000000     2.876000000
H    -2.440000000    -4.808000000     2.260000000
C    -3.543000000    -2.915000000     2.293000000
C    -4.124000000    -1.988000000     3.128000000
H    -4.677000000    -1.150000000     2.711000000
C    -3.464000000    -2.685000000     0.790000000
O    -3.312000000    -3.958000000     0.145000000
H    -2.611000000    -2.006000000     0.645000000
O    -4.545000000    -1.998000000     0.215000000
C    -4.373000000    -1.074000000    -0.768000000
C    -4.317000000     0.232000000    -0.441000000
H    -4.383000000     0.564000000     0.592000000
C    -4.093000000     1.182000000    -1.380000000
O    -4.031000000     2.475000000    -0.862000000
C    -4.007000000     0.814000000    -2.739000000
C    -3.667000000     1.881000000    -3.865000000
H    -4.075000000     1.595000000    -4.838000000
C    -2.178000000     2.225000000    -3.880000000
C    -1.220000000     1.477000000    -4.629000000
H    -1.553000000     0.674000000    -5.281000000
H    -4.175000000     2.822000000    -3.644000000
C    -4.077000000    -0.510000000    -3.108000000
H    -4.128000000    -0.822000000    -4.148000000
C    -4.236000000    -1.514000000    -2.076000000
C    -4.103000000    -2.993000000    -2.456000000
H    -4.252000000    -3.122000000    -3.530000000
H    -4.820000000    -3.641000000    -1.948000000
C    -2.712000000    -3.495000000    -2.144000000
C    -1.736000000    -3.542000000    -3.163000000
H    -2.008000000    -3.178000000    -4.151000000
C    -2.380000000    -4.024000000    -0.888000000
C    -1.082000000    -4.260000000    -0.556000000
H    -0.889000000    -4.638000000     0.445000000
C    -0.074000000    -4.062000000    -1.537000000
O     1.137000000    -4.310000000    -1.051000000
C     1.984000000    -3.174000000    -0.826000000
C     2.670000000    -3.399000000     0.511000000
C     3.722000000    -2.493000000     0.861000000
H     4.084000000    -1.794000000     0.112000000
C     2.256000000    -4.243000000     1.532000000
H     1.414000000    -4.912000000     1.375000000
O     2.893000000    -3.064000000    -1.939000000
H     1.435000000    -2.250000000    -0.591000000
C    -0.377000000    -3.775000000    -2.859000000
C     0.744000000    -3.817000000    -3.893000000
H     0.269000000    -4.003000000    -4.859000000
H     1.415000000    -4.634000000    -3.617000000
C     1.501000000    -2.466000000    -3.947000000
C     1.039000000    -1.449000000    -4.767000000
H     0.116000000    -1.577000000    -5.325000000
C     2.592000000    -2.211000000    -2.996000000
C     3.325000000    -1.055000000    -3.082000000
H     4.228000000    -0.807000000    -2.531000000
C     2.872000000    -0.033000000    -3.976000000
O     3.462000000     1.286000000    -3.749000000
C     2.669000000     2.176000000    -2.840000000
C     3.531000000     2.809000000    -1.736000000
C     4.787000000     2.186000000    -1.361000000
H     5.097000000     1.271000000    -1.861000000
C     3.121000000     3.956000000    -1.045000000
H     2.154000000     4.396000000    -1.274000000
O     1.922000000     3.111000000    -3.685000000
H     1.881000000     1.594000000    -2.339000000
C     1.720000000    -0.205000000    -4.804000000
C     1.058000000     0.988000000    -5.549000000
H     0.471000000     0.673000000    -6.414000000
H     1.822000000     1.669000000    -5.928000000
C     0.100000000     1.829000000    -4.696000000
C     0.557000000     2.905000000    -3.895000000
C    -0.390000000     3.628000000    -3.087000000
H    -0.030000000     4.396000000    -2.408000000
C    -1.707000000     3.246000000    -3.053000000
O    -2.550000000     3.797000000    -2.111000000
C    -2.742000000     3.034000000    -0.896000000
H    -2.026000000     2.203000000    -0.973000000
C    -2.524000000     3.814000000     0.356000000
C    -2.941000000     3.259000000     1.611000000
H    -3.448000000     2.303000000     1.720000000
C    -1.856000000     5.091000000     0.307000000
H    -1.566000000     5.639000000    -0.585000000
C    -1.585000000     5.747000000     1.566000000
O    -0.803000000     6.953000000     1.546000000
C    -1.893000000     5.095000000     2.731000000
H    -1.679000000     5.603000000     3.668000000
C    -2.532000000     3.869000000     2.791000000
O    -2.937000000     3.347000000     4.041000000
C    -3.968000000     2.423000000     4.295000000
C    -3.738000000     1.091000000     4.786000000
H    -2.700000000     0.779000000     4.877000000
C    -5.291000000     2.861000000     4.103000000
H    -5.408000000     3.831000000     3.625000000
C    -6.424000000     2.052000000     4.284000000
H    -7.381000000     2.455000000     3.963000000
C    -6.155000000     0.751000000     4.703000000
H    -6.961000000     0.028000000     4.791000000
C    -4.841000000     0.207000000     4.926000000
O    -4.609000000    -1.112000000     5.382000000
C    -4.073000000    -2.107000000     4.497000000
C    -3.357000000    -3.181000000     5.071000000
H    -3.326000000    -3.228000000     6.156000000
C    -2.798000000    -4.169000000     4.252000000
O    -2.110000000    -5.136000000     4.896000000
C    -1.068000000    -5.699000000     4.212000000
C     0.231000000    -5.115000000     4.251000000
H     0.354000000    -4.121000000     4.675000000
C    -1.220000000    -6.939000000     3.581000000
H    -2.189000000    -7.425000000     3.658000000
C    -0.090000000    -7.589000000     2.995000000
H    -0.037000000    -8.627000000     2.675000000
C     1.168000000    -6.985000000     3.140000000
H     1.994000000    -7.615000000     2.821000000
C     1.368000000    -5.701000000     3.690000000
O     2.612000000    -5.166000000     3.687000000
C     2.908000000    -4.251000000     2.740000000
C     3.972000000    -3.453000000     3.056000000
H     4.489000000    -3.526000000     4.010000000
C     4.381000000    -2.567000000     2.043000000
O     5.523000000    -1.763000000     2.338000000
C     6.287000000    -1.134000000     1.431000000
C     6.083000000     0.239000000     1.192000000
H     5.382000000     0.869000000     1.734000000
C     7.200000000    -1.897000000     0.672000000
H     7.216000000    -2.982000000     0.735000000
C     7.910000000    -1.237000000    -0.331000000
H     8.570000000    -1.732000000    -1.039000000
C     7.767000000     0.174000000    -0.509000000
H     8.333000000     0.706000000    -1.270000000
C     6.820000000     0.867000000     0.253000000
O     6.706000000     2.267000000     0.116000000
C     5.547000000     2.756000000    -0.417000000
C     5.152000000     3.927000000     0.225000000
H     5.816000000     4.433000000     0.922000000
C     3.963000000     4.518000000    -0.083000000
O     3.721000000     5.749000000     0.477000000
C     2.597000000     6.510000000     0.259000000
C     2.798000000     7.620000000    -0.537000000
H     3.730000000     7.804000000    -1.065000000
C     1.728000000     8.499000000    -0.773000000
H     1.805000000     9.377000000    -1.409000000
C     0.569000000     8.245000000    -0.065000000
H    -0.250000000     8.946000000    -0.202000000
C     0.347000000     7.155000000     0.807000000
C     1.398000000     6.197000000     0.917000000
H     1.214000000     5.306000000     1.513000000
C     1.955000000     0.749000000     1.791000000
H     2.979000000     0.493000000     2.052000000
C     1.577000000     0.500000000     0.496000000
H     2.348000000     0.188000000    -0.204000000
C     0.243000000     0.485000000     0.136000000
H     0.089000000     0.320000000    -0.988000000
C    -0.743000000     0.877000000     0.977000000
H    -1.785000000     0.865000000     0.669000000
C    -0.435000000     1.097000000     2.288000000
H    -1.214000000     1.311000000     3.015000000
C     0.953000000     1.080000000     2.718000000
C     1.221000000     1.434000000     4.105000000
O     0.345000000     1.931000000     4.825000000
O     2.241000000     1.077000000     4.621000000
O    -1.416000000     2.627000000     6.856000000
H    -1.116000000     2.249000000     6.029000000
H    -0.912000000     3.435000000     6.947000000
O    -0.829000000     6.074000000     6.782000000
H    -0.553000000     6.764000000     6.178000000
H    -1.695000000     6.351000000     7.082000000
O    -0.457000000    -1.138000000     5.192000000
H     0.319000000    -1.697000000     5.168000000
H    -0.154000000    -0.293000000     4.859000000
O    -1.007000000     1.328000000     9.582000000
H    -0.605000000     2.110000000     9.205000000
H    -1.948000000     1.472000000     9.486000000
O    -3.148000000     2.976000000     8.987000000
H    -3.815000000     3.659000000     8.910000000
H    -2.790000000     2.890000000     8.103000000
O     4.952000000     1.362000000     8.501000000
H     4.674000000     0.763000000     9.194000000
H     4.993000000     2.218000000     8.927000000
O     2.949000000    -0.761000000     6.626000000
H     2.189000000    -0.365000000     7.051000000
H     3.033000000    -0.292000000     5.796000000
O     4.531000000     1.963000000     3.826000000
H     3.723000000     1.631000000     4.216000000
H     4.294000000     2.822000000     3.477000000
O    -2.374000000    -0.388000000     7.327000000
H    -2.081000000    -0.724000000     6.480000000
H    -1.689000000     0.228000000     7.590000000
O     1.046000000     3.391000000     8.725000000
H     1.853000000     3.816000000     8.433000000
H     1.003000000     3.578000000     9.663000000
O     5.475000000     6.150000000     3.386000000
H     5.030000000     6.997000000     3.403000000
H     4.765000000     5.508000000     3.361000000
O     3.335000000     4.229000000     3.038000000
H     2.636000000     4.493000000     3.636000000
H     3.331000000     4.899000000     2.354000000
O     3.345000000     5.545000000     8.723000000
H     3.789000000     4.808000000     9.143000000
H     3.484000000     5.405000000     7.786000000
O     5.987000000     0.631000000     5.794000000
H     5.298000000     0.810000000     6.435000000
H     5.640000000     0.970000000     4.969000000
O     0.783000000     0.811000000     7.246000000
H     1.050000000     1.174000000     6.401000000
H     0.777000000     1.563000000     7.838000000
O     4.631000000    -1.768000000     8.627000000
H     4.412000000    -1.213000000     7.878000000
H     5.574000000    -1.912000000     8.550000000
O     1.312000000     4.805000000     5.196000000
H     1.154000000     3.861000000     5.183000000
H     0.599000000     5.160000000     5.726000000
O     0.543000000    -1.834000000     8.441000000
H     0.112000000    -1.102000000     7.999000000
H     1.132000000    -2.199000000     7.782000000
O     2.152000000    -3.558000000     6.979000000
H     2.650000000    -4.374000000     6.940000000
H     2.805000000    -2.872000000     6.840000000
