215
-1427.41879
C    -2.713000000    -2.148000000     3.608000000
H    -1.871000000    -2.794000000     3.371000000
C    -3.697000000    -1.718000000     2.719000000
C    -4.652000000    -0.791000000     3.108000000
H    -5.287000000    -0.297000000     2.377000000
C    -3.636000000    -2.198000000     1.261000000
O    -3.357000000    -3.663000000     1.241000000
H    -2.876000000    -1.565000000     0.779000000
O    -4.879000000    -1.968000000     0.513000000
C    -4.709000000    -1.416000000    -0.722000000
C    -4.682000000     0.022000000    -0.819000000
H    -4.980000000     0.652000000     0.015000000
C    -4.141000000     0.650000000    -1.912000000
O    -3.865000000     2.019000000    -1.734000000
C    -3.739000000    -0.005000000    -3.049000000
C    -3.236000000     0.691000000    -4.346000000
H    -3.559000000     0.063000000    -5.179000000
C    -1.803000000     1.026000000    -4.465000000
C    -0.964000000     0.043000000    -4.966000000
H    -1.276000000    -0.930000000    -5.337000000
H    -3.918000000     1.543000000    -4.371000000
C    -3.745000000    -1.389000000    -2.938000000
H    -3.334000000    -1.955000000    -3.769000000
C    -4.150000000    -2.088000000    -1.770000000
C    -3.968000000    -3.564000000    -1.751000000
H    -4.048000000    -3.874000000    -2.795000000
H    -4.813000000    -4.011000000    -1.223000000
C    -2.695000000    -4.025000000    -1.119000000
C    -1.712000000    -4.321000000    -2.023000000
H    -1.833000000    -4.182000000    -3.094000000
C    -2.376000000    -4.006000000     0.257000000
C    -1.079000000    -4.342000000     0.670000000
H    -0.890000000    -4.326000000     1.740000000
C    -0.160000000    -4.738000000    -0.245000000
O     1.094000000    -5.047000000     0.238000000
C     2.047000000    -3.929000000     0.286000000
C     2.861000000    -3.818000000     1.584000000
C     4.073000000    -3.213000000     1.559000000
H     4.533000000    -3.035000000     0.591000000
C     2.302000000    -4.125000000     2.814000000
H     1.366000000    -4.677000000     2.763000000
O     2.853000000    -4.004000000    -0.994000000
H     1.456000000    -3.003000000     0.340000000
C    -0.485000000    -4.760000000    -1.631000000
C     0.585000000    -4.968000000    -2.650000000
H     0.152000000    -5.269000000    -3.607000000
H     1.289000000    -5.728000000    -2.307000000
C     1.367000000    -3.620000000    -2.928000000
C     1.080000000    -2.888000000    -4.060000000
H     0.196000000    -2.972000000    -4.687000000
C     2.496000000    -3.342000000    -2.143000000
C     3.275000000    -2.206000000    -2.397000000
H     4.013000000    -1.976000000    -1.633000000
C     2.988000000    -1.404000000    -3.506000000
O     3.551000000    -0.151000000    -3.522000000
C     2.825000000     0.959000000    -3.029000000
C     3.620000000     1.932000000    -2.165000000
C     4.515000000     1.490000000    -1.183000000
H     4.507000000     0.427000000    -0.960000000
C     3.543000000     3.351000000    -2.357000000
H     2.844000000     3.735000000    -3.095000000
O     2.278000000     1.649000000    -4.209000000
H     2.082000000     0.638000000    -2.284000000
C     1.866000000    -1.724000000    -4.322000000
C     1.449000000    -0.753000000    -5.399000000
H     0.963000000    -1.410000000    -6.123000000
H     2.337000000    -0.400000000    -5.928000000
C     0.387000000     0.337000000    -4.956000000
C     0.928000000     1.476000000    -4.374000000
C     0.113000000     2.365000000    -3.702000000
H     0.349000000     3.293000000    -3.189000000
C    -1.281000000     2.162000000    -3.807000000
O    -2.069000000     2.922000000    -2.999000000
C    -2.457000000     2.547000000    -1.662000000
H    -1.742000000     1.829000000    -1.234000000
C    -2.315000000     3.790000000    -0.760000000
C    -3.036000000     3.768000000     0.451000000
H    -3.863000000     3.093000000     0.653000000
C    -1.291000000     4.703000000    -0.928000000
H    -0.663000000     4.636000000    -1.812000000
C    -1.025000000     5.697000000     0.033000000
O    -0.171000000     6.769000000    -0.176000000
C    -1.876000000     5.706000000     1.095000000
H    -1.862000000     6.595000000     1.721000000
C    -2.867000000     4.744000000     1.358000000
O    -3.367000000     4.676000000     2.616000000
C    -4.580000000     4.019000000     2.991000000
C    -4.425000000     2.809000000     3.598000000
H    -3.392000000     2.483000000     3.683000000
C    -5.826000000     4.500000000     2.603000000
H    -5.860000000     5.516000000     2.220000000
C    -6.959000000     3.774000000     2.966000000
H    -7.967000000     4.109000000     2.734000000
C    -6.825000000     2.543000000     3.677000000
H    -7.671000000     1.977000000     4.059000000
C    -5.533000000     1.992000000     3.927000000
O    -5.425000000     0.868000000     4.697000000
C    -4.594000000    -0.146000000     4.340000000
C    -3.643000000    -0.655000000     5.315000000
H    -3.597000000    -0.179000000     6.292000000
C    -2.755000000    -1.640000000     4.934000000
O    -1.748000000    -1.939000000     5.773000000
C    -1.023000000    -3.040000000     5.624000000
C     0.336000000    -3.024000000     5.359000000
H     0.878000000    -2.082000000     5.366000000
C    -1.679000000    -4.227000000     5.894000000
H    -2.760000000    -4.120000000     5.841000000
C    -0.982000000    -5.392000000     6.108000000
H    -1.611000000    -6.209000000     6.451000000
C     0.373000000    -5.379000000     5.837000000
H     1.060000000    -6.218000000     5.917000000
C     1.045000000    -4.178000000     5.490000000
O     2.427000000    -4.123000000     5.238000000
C     2.928000000    -3.897000000     4.020000000
C     4.133000000    -3.176000000     3.983000000
H     4.652000000    -2.938000000     4.908000000
C     4.736000000    -2.941000000     2.705000000
O     6.008000000    -2.346000000     2.697000000
C     6.477000000    -1.468000000     1.707000000
C     6.043000000    -0.145000000     1.644000000
H     5.179000000     0.194000000     2.210000000
C     7.591000000    -1.890000000     0.886000000
H     8.042000000    -2.878000000     0.929000000
C     8.105000000    -1.049000000    -0.156000000
H     8.896000000    -1.370000000    -0.828000000
C     7.627000000     0.249000000    -0.164000000
H     8.031000000     0.920000000    -0.917000000
C     6.564000000     0.661000000     0.680000000
O     6.112000000     1.940000000     0.581000000
C     5.292000000     2.380000000    -0.465000000
C     5.198000000     3.768000000    -0.614000000
H     5.790000000     4.466000000    -0.026000000
C     4.294000000     4.183000000    -1.574000000
O     4.210000000     5.584000000    -1.738000000
C     3.007000000     6.210000000    -1.941000000
C     2.758000000     6.991000000    -3.086000000
H     3.553000000     6.994000000    -3.827000000
C     1.525000000     7.612000000    -3.275000000
H     1.300000000     8.131000000    -4.204000000
C     0.592000000     7.586000000    -2.264000000
H    -0.298000000     8.208000000    -2.297000000
C     0.814000000     6.855000000    -1.097000000
C     2.061000000     6.224000000    -0.899000000
H     2.319000000     5.704000000     0.020000000
C     1.768000000     0.780000000     1.601000000
H     2.813000000     0.910000000     1.870000000
C     1.328000000     0.213000000     0.423000000
H     2.067000000    -0.259000000    -0.220000000
C    -0.050000000     0.019000000     0.186000000
H    -0.460000000    -0.451000000    -0.726000000
C    -0.910000000     0.489000000     1.194000000
H    -1.963000000     0.229000000     1.119000000
C    -0.522000000     1.267000000     2.296000000
H    -1.273000000     1.642000000     2.986000000
C     0.832000000     1.362000000     2.489000000
C     1.354000000     2.048000000     3.716000000
O     0.637000000     2.254000000     4.678000000
O     2.574000000     2.228000000     3.879000000
O     4.127000000     7.552000000     3.940000000
H     3.236000000     7.402000000     3.625000000
H     4.079000000     8.387000000     4.405000000
O     0.402000000     5.156000000     8.860000000
H     0.191000000     4.730000000     8.029000000
H     1.219000000     4.743000000     9.139000000
O     1.117000000     1.013000000     6.891000000
H     0.791000000     1.446000000     6.102000000
H     1.993000000     0.710000000     6.653000000
O    -3.071000000     5.842000000     5.946000000
H    -2.619000000     6.653000000     5.716000000
H    -2.370000000     5.201000000     6.062000000
O     0.958000000     6.621000000     5.700000000
H     1.145000000     6.674000000     4.763000000
H     1.459000000     7.339000000     6.086000000
O     1.131000000     1.858000000     9.435000000
H     1.205000000     1.534000000     8.538000000
H     1.675000000     2.645000000     9.451000000
O     3.948000000     0.824000000     5.635000000
H     3.301000000     1.216000000     5.049000000
H     4.770000000     1.259000000     5.409000000
O     4.052000000     3.732000000     2.283000000
H     3.721000000     3.818000000     1.388000000
H     3.448000000     3.119000000     2.702000000
O     5.690000000     3.172000000     6.940000000
H     6.176000000     2.802000000     6.203000000
H     4.800000000     3.286000000     6.606000000
O    -0.001000000     4.085000000     6.549000000
H     0.301000000     4.969000000     6.337000000
H     0.436000000     3.523000000     5.910000000
O     2.958000000     4.006000000     8.984000000
H     3.261000000     3.605000000     8.170000000
H     3.719000000     4.486000000     9.312000000
O    -3.240000000     1.876000000     8.491000000
H    -2.746000000     1.970000000     9.306000000
H    -2.606000000     2.080000000     7.802000000
O     6.045000000     5.619000000     3.114000000
H     5.460000000     6.375000000     3.154000000
H     5.534000000     4.944000000     2.667000000
O    -1.953000000     2.471000000     5.799000000
H    -1.539000000     2.127000000     5.008000000
H    -1.259000000     2.963000000     6.238000000
O     4.086000000    -0.960000000     7.657000000
H     4.978000000    -1.265000000     7.490000000
H     3.949000000    -0.258000000     7.021000000
O     1.257000000     7.444000000     2.894000000
H     0.409000000     7.864000000     2.744000000
H     1.802000000     7.740000000     2.165000000
O     6.216000000     2.241000000     4.420000000
H     7.037000000     1.783000000     4.242000000
H     6.067000000     2.776000000     3.641000000
O     3.110000000     3.733000000     6.113000000
H     2.674000000     3.351000000     5.352000000
H     3.473000000     4.558000000     5.792000000
O    -0.181000000    -1.570000000     8.216000000
H     0.374000000    -0.831000000     7.965000000
H    -0.634000000    -1.814000000     7.409000000
