215
-1447.98790
C    -3.401000000    -2.928000000     3.590000000
H    -2.972000000    -3.884000000     3.304000000
C    -3.799000000    -2.029000000     2.625000000
C    -4.393000000    -0.834000000     3.026000000
H    -4.641000000    -0.080000000     2.284000000
C    -3.644000000    -2.335000000     1.149000000
O    -3.365000000    -3.698000000     0.920000000
H    -2.739000000    -1.784000000     0.854000000
O    -4.838000000    -1.765000000     0.405000000
C    -4.626000000    -1.218000000    -0.902000000
C    -4.590000000     0.183000000    -1.049000000
H    -4.743000000     0.826000000    -0.187000000
C    -4.126000000     0.766000000    -2.252000000
O    -3.902000000     2.150000000    -2.287000000
C    -3.673000000     0.006000000    -3.329000000
C    -3.081000000     0.682000000    -4.558000000
H    -3.240000000    -0.033000000    -5.368000000
C    -1.608000000     1.067000000    -4.400000000
C    -0.673000000     0.238000000    -4.883000000
H    -1.006000000    -0.703000000    -5.313000000
H    -3.670000000     1.541000000    -4.885000000
C    -3.665000000    -1.408000000    -3.219000000
H    -3.250000000    -2.061000000    -3.983000000
C    -4.119000000    -1.981000000    -1.991000000
C    -4.007000000    -3.459000000    -1.820000000
H    -4.097000000    -3.993000000    -2.768000000
H    -4.798000000    -3.791000000    -1.144000000
C    -2.597000000    -3.811000000    -1.324000000
C    -1.543000000    -4.071000000    -2.229000000
H    -1.658000000    -3.909000000    -3.298000000
C    -2.374000000    -3.989000000     0.030000000
C    -1.095000000    -4.287000000     0.562000000
H    -1.040000000    -4.493000000     1.628000000
C    -0.102000000    -4.568000000    -0.365000000
O     1.115000000    -4.845000000     0.155000000
C     2.107000000    -3.812000000     0.123000000
C     2.793000000    -3.600000000     1.438000000
C     4.075000000    -3.118000000     1.594000000
H     4.619000000    -2.818000000     0.702000000
C     2.078000000    -3.718000000     2.615000000
H     1.011000000    -3.924000000     2.569000000
O     2.979000000    -4.045000000    -1.011000000
H     1.611000000    -2.840000000    -0.017000000
C    -0.294000000    -4.467000000    -1.732000000
C     0.877000000    -4.694000000    -2.674000000
H     0.486000000    -5.030000000    -3.637000000
H     1.462000000    -5.498000000    -2.222000000
C     1.812000000    -3.543000000    -3.023000000
C     1.441000000    -2.670000000    -4.031000000
H     0.546000000    -2.876000000    -4.613000000
C     2.781000000    -3.191000000    -2.090000000
C     3.492000000    -1.976000000    -2.257000000
H     4.132000000    -1.623000000    -1.453000000
C     3.169000000    -1.132000000    -3.348000000
O     3.769000000     0.112000000    -3.328000000
C     3.047000000     1.303000000    -2.943000000
C     3.711000000     2.252000000    -1.975000000
C     4.598000000     1.731000000    -1.033000000
H     4.806000000     0.667000000    -0.952000000
C     3.422000000     3.604000000    -1.933000000
H     2.778000000     4.081000000    -2.668000000
O     2.441000000     1.978000000    -4.026000000
H     2.173000000     1.008000000    -2.343000000
C     2.093000000    -1.446000000    -4.148000000
C     1.703000000    -0.551000000    -5.371000000
H     1.242000000    -1.201000000    -6.119000000
H     2.665000000    -0.235000000    -5.781000000
C     0.694000000     0.514000000    -4.921000000
C     1.113000000     1.715000000    -4.289000000
C     0.168000000     2.647000000    -3.821000000
H     0.485000000     3.393000000    -3.097000000
C    -1.182000000     2.279000000    -3.915000000
O    -2.011000000     3.160000000    -3.271000000
C    -2.573000000     2.682000000    -2.056000000
H    -1.996000000     1.815000000    -1.702000000
C    -2.375000000     3.701000000    -0.977000000
C    -2.755000000     3.405000000     0.301000000
H    -3.197000000     2.450000000     0.572000000
C    -1.724000000     4.911000000    -1.165000000
H    -1.446000000     5.209000000    -2.173000000
C    -1.386000000     5.732000000    -0.083000000
O    -0.693000000     6.915000000    -0.380000000
C    -1.878000000     5.516000000     1.166000000
H    -1.651000000     6.153000000     2.017000000
C    -2.622000000     4.366000000     1.336000000
O    -2.925000000     3.998000000     2.664000000
C    -4.169000000     3.543000000     3.038000000
C    -4.174000000     2.308000000     3.687000000
H    -3.289000000     1.679000000     3.741000000
C    -5.362000000     4.269000000     2.966000000
H    -5.434000000     5.192000000     2.397000000
C    -6.540000000     3.807000000     3.632000000
H    -7.406000000     4.454000000     3.746000000
C    -6.556000000     2.549000000     4.222000000
H    -7.483000000     2.147000000     4.622000000
C    -5.377000000     1.814000000     4.248000000
O    -5.432000000     0.505000000     4.696000000
C    -4.573000000    -0.544000000     4.367000000
C    -4.070000000    -1.441000000     5.323000000
H    -4.137000000    -1.237000000     6.389000000
C    -3.416000000    -2.582000000     4.932000000
O    -2.935000000    -3.481000000     5.840000000
C    -1.745000000    -4.102000000     5.650000000
C    -0.583000000    -3.375000000     5.381000000
H    -0.615000000    -2.293000000     5.483000000
C    -1.661000000    -5.512000000     5.755000000
H    -2.514000000    -6.057000000     6.151000000
C    -0.453000000    -6.157000000     5.476000000
H    -0.465000000    -7.243000000     5.450000000
C     0.681000000    -5.446000000     5.131000000
H     1.675000000    -5.868000000     5.002000000
C     0.596000000    -4.060000000     5.145000000
O     1.836000000    -3.431000000     5.029000000
C     2.601000000    -3.297000000     3.865000000
C     3.903000000    -2.860000000     3.960000000
H     4.251000000    -2.565000000     4.946000000
C     4.704000000    -2.786000000     2.832000000
O     5.906000000    -2.217000000     2.895000000
C     6.509000000    -1.435000000     1.928000000
C     6.191000000    -0.040000000     1.882000000
H     5.520000000     0.377000000     2.629000000
C     7.236000000    -1.932000000     0.822000000
H     7.284000000    -3.002000000     0.634000000
C     7.734000000    -1.118000000    -0.203000000
H     8.202000000    -1.617000000    -1.048000000
C     7.418000000     0.229000000    -0.107000000
H     7.843000000     0.861000000    -0.882000000
C     6.668000000     0.801000000     0.910000000
O     6.183000000     2.095000000     0.833000000
C     5.331000000     2.606000000    -0.148000000
C     5.034000000     3.943000000    -0.129000000
H     5.571000000     4.684000000     0.457000000
C     4.109000000     4.475000000    -1.035000000
O     3.939000000     5.805000000    -1.071000000
C     2.764000000     6.486000000    -1.436000000
C     2.740000000     7.269000000    -2.589000000
H     3.704000000     7.440000000    -3.062000000
C     1.595000000     7.955000000    -3.101000000
H     1.548000000     8.647000000    -3.938000000
C     0.458000000     7.782000000    -2.322000000
H    -0.489000000     8.225000000    -2.620000000
C     0.413000000     6.979000000    -1.186000000
C     1.574000000     6.320000000    -0.768000000
H     1.497000000     5.662000000     0.094000000
C     1.844000000     0.097000000     1.551000000
H     2.843000000    -0.174000000     1.881000000
C     1.410000000    -0.293000000     0.273000000
H     2.043000000    -0.695000000    -0.513000000
C     0.079000000    -0.165000000    -0.062000000
H    -0.319000000    -0.430000000    -1.081000000
C    -0.808000000     0.372000000     0.784000000
H    -1.850000000     0.531000000     0.517000000
C    -0.410000000     0.700000000     2.079000000
H    -1.049000000     1.243000000     2.770000000
C     0.893000000     0.476000000     2.454000000
C     1.389000000     0.929000000     3.866000000
O     0.559000000     1.250000000     4.707000000
O     2.589000000     1.167000000     3.982000000
O     2.193000000     6.013000000     5.095000000
H     3.048000000     6.333000000     5.383000000
H     2.313000000     5.811000000     4.167000000
O    -2.044000000     3.590000000     9.002000000
H    -1.778000000     3.893000000     9.870000000
H    -1.348000000     3.892000000     8.418000000
O    -0.461000000     4.521000000     6.970000000
H    -0.599000000     4.377000000     6.034000000
H    -0.467000000     5.473000000     7.069000000
O     0.393000000    -0.672000000     6.659000000
H     0.547000000    -0.088000000     5.916000000
H     0.333000000    -0.087000000     7.414000000
O    -0.184000000     7.082000000     6.374000000
H    -0.126000000     8.035000000     6.304000000
H     0.660000000     6.766000000     6.051000000
O     4.427000000    -0.233000000     6.325000000
H     3.698000000    -0.004000000     5.748000000
H     5.194000000     0.159000000     5.908000000
O     3.641000000     3.559000000     4.668000000
H     3.425000000     2.679000000     4.359000000
H     2.800000000     3.936000000     4.923000000
O     3.066000000     4.173000000     8.252000000
H     2.618000000     3.615000000     7.616000000
H     2.593000000     5.004000000     8.216000000
O     2.454000000     5.064000000     2.226000000
H     3.204000000     4.624000000     1.825000000
H     1.816000000     4.366000000     2.370000000
O    -2.227000000    -1.451000000     7.793000000
H    -1.672000000    -1.215000000     7.049000000
H    -2.444000000    -0.614000000     8.204000000
O     5.466000000     4.784000000     2.946000000
H     5.143000000     5.635000000     2.650000000
H     4.753000000     4.427000000     3.476000000
O     1.614000000     0.527000000     9.317000000
H     0.681000000     0.332000000     9.405000000
H     1.641000000     1.345000000     8.821000000
O     5.355000000     1.974000000     8.086000000
H     4.711000000     2.664000000     8.249000000
H     4.919000000     1.379000000     7.477000000
O     5.416000000    -2.439000000     7.720000000
H     5.069000000    -1.778000000     7.120000000
H     4.662000000    -2.987000000     7.936000000
O    -0.606000000     3.528000000     4.528000000
H    -0.387000000     2.604000000     4.408000000
H    -1.264000000     3.708000000     3.857000000
O    -0.482000000    -3.419000000     8.628000000
H    -1.092000000    -2.718000000     8.397000000
H     0.259000000    -3.296000000     8.035000000
O     6.594000000     0.717000000     5.112000000
H     6.300000000     1.454000000     4.577000000
H     7.520000000     0.615000000     4.891000000
O     1.425000000     2.333000000     7.267000000
H     1.558000000     1.942000000     6.404000000
H     0.856000000     3.085000000     7.105000000
O     2.598000000    -2.860000000     8.370000000
H     2.251000000    -2.480000000     7.563000000
H     2.517000000    -2.161000000     9.018000000
