215
-1471.50753
C    -2.895000000    -2.791000000     3.273000000
H    -2.747000000    -3.805000000     2.910000000
C    -3.308000000    -1.818000000     2.384000000
C    -3.411000000    -0.540000000     2.926000000
H    -3.759000000     0.238000000     2.251000000
C    -3.549000000    -1.992000000     0.921000000
O    -3.666000000    -3.296000000     0.530000000
H    -2.667000000    -1.545000000     0.439000000
O    -4.659000000    -1.288000000     0.391000000
C    -4.595000000    -0.609000000    -0.810000000
C    -4.431000000     0.771000000    -0.709000000
H    -4.486000000     1.323000000     0.226000000
C    -3.966000000     1.554000000    -1.729000000
O    -3.754000000     2.849000000    -1.483000000
C    -3.777000000     0.899000000    -2.935000000
C    -3.274000000     1.676000000    -4.107000000
H    -3.596000000     1.101000000    -4.978000000
C    -1.742000000     1.793000000    -4.107000000
C    -0.989000000     0.821000000    -4.714000000
H    -1.435000000    -0.089000000    -5.109000000
H    -3.706000000     2.675000000    -4.198000000
C    -4.001000000    -0.461000000    -3.090000000
H    -3.703000000    -0.921000000    -4.029000000
C    -4.383000000    -1.248000000    -2.024000000
C    -4.412000000    -2.742000000    -2.160000000
H    -4.588000000    -3.026000000    -3.199000000
H    -5.206000000    -3.168000000    -1.543000000
C    -3.082000000    -3.422000000    -1.860000000
C    -2.189000000    -3.851000000    -2.805000000
H    -2.316000000    -3.593000000    -3.853000000
C    -2.808000000    -3.693000000    -0.467000000
C    -1.619000000    -4.239000000    -0.080000000
H    -1.324000000    -4.325000000     0.963000000
C    -0.705000000    -4.578000000    -1.076000000
O     0.570000000    -4.954000000    -0.594000000
C     1.694000000    -4.023000000    -0.517000000
C     2.499000000    -4.231000000     0.796000000
C     3.799000000    -3.701000000     0.968000000
H     4.262000000    -3.260000000     0.089000000
C     1.898000000    -4.937000000     1.860000000
H     0.975000000    -5.501000000     1.754000000
O     2.473000000    -4.211000000    -1.734000000
H     1.261000000    -3.012000000    -0.543000000
C    -0.981000000    -4.372000000    -2.403000000
C     0.104000000    -4.592000000    -3.506000000
H    -0.351000000    -4.795000000    -4.477000000
H     0.656000000    -5.487000000    -3.213000000
C     1.048000000    -3.337000000    -3.517000000
C     0.709000000    -2.248000000    -4.289000000
H    -0.199000000    -2.246000000    -4.887000000
C     2.194000000    -3.305000000    -2.692000000
C     2.942000000    -2.135000000    -2.624000000
H     3.636000000    -1.948000000    -1.808000000
C     2.652000000    -1.074000000    -3.480000000
O     3.334000000     0.058000000    -3.307000000
C     2.704000000     1.238000000    -2.892000000
C     3.474000000     1.982000000    -1.835000000
C     4.191000000     1.222000000    -0.870000000
H     4.230000000     0.138000000    -0.941000000
C     3.494000000     3.380000000    -1.795000000
H     2.888000000     3.976000000    -2.472000000
O     2.325000000     2.093000000    -3.976000000
H     1.755000000     0.913000000    -2.442000000
C     1.594000000    -1.185000000    -4.401000000
C     1.308000000    -0.038000000    -5.370000000
H     0.709000000    -0.555000000    -6.123000000
H     2.196000000     0.404000000    -5.827000000
C     0.383000000     1.006000000    -4.750000000
C     0.964000000     2.138000000    -4.207000000
C     0.210000000     3.048000000    -3.521000000
H     0.725000000     3.897000000    -3.078000000
C    -1.147000000     2.870000000    -3.395000000
O    -1.842000000     3.714000000    -2.590000000
C    -2.363000000     3.248000000    -1.366000000
H    -1.784000000     2.419000000    -0.934000000
C    -2.190000000     4.364000000    -0.295000000
C    -3.015000000     4.428000000     0.793000000
H    -3.834000000     3.718000000     0.881000000
C    -1.164000000     5.278000000    -0.483000000
H    -0.578000000     5.359000000    -1.395000000
C    -0.942000000     6.288000000     0.502000000
O    -0.102000000     7.357000000     0.348000000
C    -1.689000000     6.316000000     1.654000000
H    -1.410000000     7.039000000     2.416000000
C    -2.730000000     5.358000000     1.768000000
O    -3.461000000     5.410000000     2.896000000
C    -4.108000000     4.297000000     3.356000000
C    -3.329000000     3.183000000     3.939000000
H    -2.266000000     3.352000000     4.088000000
C    -5.471000000     4.187000000     3.347000000
H    -6.033000000     5.053000000     3.007000000
C    -6.092000000     3.016000000     3.722000000
H    -7.179000000     3.043000000     3.736000000
C    -5.349000000     1.965000000     4.233000000
H    -5.803000000     1.038000000     4.574000000
C    -3.973000000     2.000000000     4.315000000
O    -3.328000000     0.941000000     4.881000000
C    -3.214000000    -0.332000000     4.309000000
C    -2.701000000    -1.334000000     5.137000000
H    -2.399000000    -1.057000000     6.144000000
C    -2.555000000    -2.614000000     4.589000000
O    -2.083000000    -3.585000000     5.454000000
C    -1.328000000    -4.721000000     5.161000000
C     0.000000000    -4.598000000     4.770000000
H     0.400000000    -3.596000000     4.634000000
C    -1.861000000    -6.019000000     5.345000000
H    -2.910000000    -6.047000000     5.629000000
C    -1.152000000    -7.111000000     4.976000000
H    -1.577000000    -8.095000000     5.160000000
C     0.129000000    -6.983000000     4.505000000
H     0.771000000    -7.857000000     4.432000000
C     0.718000000    -5.744000000     4.489000000
O     2.052000000    -5.653000000     4.192000000
C     2.528000000    -4.959000000     3.134000000
C     3.750000000    -4.380000000     3.293000000
H     4.269000000    -4.534000000     4.235000000
C     4.359000000    -3.723000000     2.204000000
O     5.641000000    -3.348000000     2.358000000
C     6.205000000    -2.266000000     1.638000000
C     5.572000000    -1.025000000     1.760000000
H     4.791000000    -0.955000000     2.513000000
C     7.258000000    -2.542000000     0.743000000
H     7.559000000    -3.578000000     0.607000000
C     7.734000000    -1.475000000    -0.041000000
H     8.435000000    -1.705000000    -0.838000000
C     7.100000000    -0.208000000     0.086000000
H     7.315000000     0.593000000    -0.616000000
C     6.082000000     0.046000000     1.036000000
O     5.547000000     1.218000000     1.186000000
C     4.847000000     1.931000000     0.176000000
C     4.745000000     3.320000000     0.281000000
H     5.345000000     3.866000000     1.005000000
C     4.088000000     4.018000000    -0.685000000
O     4.138000000     5.363000000    -0.503000000
C     3.141000000     6.341000000    -0.694000000
C     3.500000000     7.339000000    -1.581000000
H     4.499000000     7.258000000    -2.002000000
C     2.674000000     8.411000000    -1.763000000
H     3.023000000     9.250000000    -2.360000000
C     1.492000000     8.465000000    -0.967000000
H     0.857000000     9.345000000    -1.023000000
C     1.073000000     7.309000000    -0.307000000
C     1.967000000     6.297000000    -0.027000000
H     1.782000000     5.492000000     0.679000000
C     0.874000000    -0.303000000     2.207000000
H     0.976000000    -0.983000000     3.049000000
C     0.164000000    -0.681000000     1.063000000
H    -0.297000000    -1.665000000     1.091000000
C    -0.003000000     0.187000000     0.004000000
H    -0.631000000    -0.224000000    -0.842000000
C     0.540000000     1.472000000     0.094000000
H     0.423000000     2.233000000    -0.673000000
C     1.227000000     1.890000000     1.274000000
H     1.657000000     2.889000000     1.266000000
C     1.439000000     0.980000000     2.292000000
C     2.198000000     1.394000000     3.511000000
O     2.435000000     2.600000000     3.705000000
O     2.624000000     0.584000000     4.295000000
O     0.960000000     0.659000000     6.534000000
H     1.256000000     0.635000000     5.624000000
H     1.297000000     1.489000000     6.874000000
O     2.966000000    -1.919000000     4.825000000
H     2.844000000    -1.031000000     4.491000000
H     3.869000000    -2.140000000     4.596000000
O     5.552000000     1.414000000     8.958000000
H     5.923000000     1.233000000     8.094000000
H     4.892000000     2.088000000     8.799000000
O    -0.231000000     4.719000000     6.955000000
H    -0.852000000     5.121000000     6.348000000
H    -0.164000000     5.343000000     7.678000000
O     2.134000000     3.258000000     6.210000000
H     2.296000000     3.057000000     5.288000000
H     1.325000000     3.770000000     6.204000000
O     4.050000000    -1.462000000     8.714000000
H     3.367000000    -1.349000000     8.054000000
H     4.847000000    -1.142000000     8.292000000
O     1.202000000     4.898000000     3.673000000
H     0.289000000     4.611000000     3.714000000
H     1.701000000     4.090000000     3.559000000
O     1.696000000    -1.848000000     7.230000000
H     2.023000000    -1.878000000     6.331000000
H     1.161000000    -1.055000000     7.264000000
O     4.069000000     3.835000000     8.213000000
H     3.262000000     3.653000000     7.730000000
H     4.686000000     4.133000000     7.545000000
O     1.269000000     7.474000000     5.724000000
H     1.687000000     6.911000000     5.073000000
H     0.617000000     6.912000000     6.144000000
O     6.998000000     0.912000000     3.862000000
H     6.267000000     1.087000000     3.270000000
H     6.809000000     1.440000000     4.638000000
O     5.963000000    -0.773000000     6.860000000
H     5.657000000    -0.097000000     6.255000000
H     6.017000000    -1.566000000     6.326000000
O     5.837000000     4.449000000     6.376000000
H     6.235000000     5.320000000     6.384000000
H     5.264000000     4.456000000     5.609000000
O     4.577000000     1.560000000     5.974000000
H     3.784000000     1.169000000     5.608000000
H     4.270000000     2.350000000     6.419000000
O    -0.864000000     2.724000000     9.124000000
H    -0.441000000     3.079000000     8.341000000
H    -0.139000000     2.492000000     9.703000000
O     4.352000000     4.360000000     4.101000000
H     5.177000000     4.220000000     3.637000000
H     3.791000000     3.639000000     3.814000000
O     6.832000000     3.997000000     3.041000000
H     7.213000000     3.716000000     2.208000000
H     7.544000000     3.902000000     3.674000000
O     4.161000000     7.355000000     4.232000000
H     3.795000000     6.483000000     4.083000000
H     4.692000000     7.261000000     5.023000000
O     5.663000000    -3.158000000     5.874000000
H     6.374000000    -3.794000000     5.949000000
H     5.066000000    -3.381000000     6.588000000
