215
-1486.40625
C    -4.274000000     2.036000000    -2.510000000
H    -3.615000000     1.724000000    -3.316000000
C    -3.806000000     2.867000000    -1.491000000
C    -4.550000000     3.088000000    -0.337000000
H    -4.093000000     3.639000000     0.481000000
C    -2.315000000     3.339000000    -1.523000000
O    -1.924000000     3.729000000    -2.837000000
H    -1.721000000     2.527000000    -1.078000000
O    -2.089000000     4.588000000    -0.733000000
C    -0.985000000     4.751000000     0.028000000
C    -1.112000000     4.459000000     1.380000000
H    -2.061000000     4.354000000     1.899000000
C     0.112000000     4.376000000     2.121000000
O    -0.019000000     3.852000000     3.357000000
C     1.380000000     4.599000000     1.618000000
C     2.710000000     4.399000000     2.379000000
H     3.435000000     5.053000000     1.890000000
C     3.167000000     2.998000000     2.277000000
C     4.156000000     2.528000000     1.372000000
H     4.751000000     3.211000000     0.771000000
H     2.585000000     4.796000000     3.388000000
C     1.452000000     4.933000000     0.228000000
H     2.384000000     5.125000000    -0.298000000
C     0.302000000     4.969000000    -0.530000000
C     0.370000000     5.249000000    -1.993000000
H     1.205000000     5.932000000    -2.158000000
H    -0.518000000     5.814000000    -2.286000000
C     0.544000000     3.947000000    -2.749000000
C     1.805000000     3.394000000    -3.093000000
H     2.766000000     3.824000000    -2.823000000
C    -0.628000000     3.312000000    -3.199000000
C    -0.554000000     2.158000000    -3.942000000
H    -1.458000000     1.692000000    -4.325000000
C     0.695000000     1.554000000    -4.107000000
O     0.698000000     0.321000000    -4.735000000
C     1.022000000    -0.828000000    -3.935000000
C     0.156000000    -2.004000000    -4.293000000
C     0.624000000    -3.343000000    -4.141000000
H     1.652000000    -3.513000000    -3.832000000
C    -1.215000000    -1.752000000    -4.504000000
H    -1.586000000    -0.743000000    -4.342000000
O     2.376000000    -1.156000000    -4.079000000
H     0.810000000    -0.568000000    -2.887000000
C     1.919000000     2.205000000    -3.784000000
C     3.298000000     1.616000000    -4.118000000
H     4.011000000     2.436000000    -4.232000000
H     3.299000000     1.128000000    -5.095000000
C     3.749000000     0.626000000    -3.055000000
C     4.555000000     1.024000000    -1.985000000
H     5.039000000     1.995000000    -2.037000000
C     3.275000000    -0.689000000    -3.128000000
C     3.618000000    -1.590000000    -2.137000000
H     3.253000000    -2.604000000    -2.275000000
C     4.306000000    -1.187000000    -1.046000000
O     4.481000000    -2.103000000    -0.061000000
C     3.489000000    -1.945000000     1.041000000
C     3.036000000    -3.307000000     1.649000000
C     2.522000000    -4.243000000     0.772000000
H     2.495000000    -4.079000000    -0.302000000
C     3.014000000    -3.550000000     3.032000000
H     3.383000000    -2.820000000     3.748000000
O     4.218000000    -1.081000000     2.141000000
H     2.577000000    -1.439000000     0.692000000
C     4.784000000     0.157000000    -0.925000000
C     5.593000000     0.736000000     0.263000000
H     6.294000000     1.504000000    -0.071000000
H     6.195000000    -0.070000000     0.689000000
C     4.582000000     1.195000000     1.337000000
C     4.026000000     0.279000000     2.202000000
C     2.999000000     0.726000000     3.016000000
H     2.447000000    -0.005000000     3.602000000
C     2.643000000     2.020000000     3.097000000
O     1.668000000     2.298000000     3.996000000
C     0.349000000     2.476000000     3.449000000
H     0.377000000     1.979000000     2.468000000
C    -0.561000000     1.629000000     4.318000000
C    -1.879000000     1.592000000     3.897000000
H    -2.261000000     2.270000000     3.138000000
C    -0.065000000     0.726000000     5.275000000
H     0.987000000     0.731000000     5.549000000
C    -0.914000000    -0.282000000     5.724000000
O    -0.494000000    -1.255000000     6.562000000
C    -2.212000000    -0.187000000     5.379000000
H    -2.927000000    -0.815000000     5.903000000
C    -2.704000000     0.721000000     4.496000000
O    -3.978000000     0.538000000     4.115000000
C    -4.714000000     1.675000000     3.760000000
C    -5.276000000     1.774000000     2.484000000
H    -5.069000000     0.979000000     1.772000000
C    -5.064000000     2.669000000     4.658000000
H    -4.718000000     2.521000000     5.678000000
C    -5.770000000     3.763000000     4.265000000
H    -5.915000000     4.527000000     5.025000000
C    -6.253000000     3.891000000     2.964000000
H    -6.809000000     4.736000000     2.565000000
C    -6.067000000     2.802000000     2.084000000
O    -6.609000000     2.830000000     0.842000000
C    -5.846000000     2.527000000    -0.247000000
C    -6.357000000     1.827000000    -1.309000000
H    -7.358000000     1.434000000    -1.151000000
C    -5.604000000     1.545000000    -2.418000000
O    -6.148000000     0.745000000    -3.423000000
C    -5.421000000     0.206000000    -4.508000000
C    -4.665000000    -0.874000000    -4.246000000
H    -4.741000000    -1.228000000    -3.221000000
C    -5.398000000     0.800000000    -5.778000000
H    -6.007000000     1.697000000    -5.853000000
C    -4.740000000     0.189000000    -6.816000000
H    -4.979000000     0.455000000    -7.842000000
C    -4.034000000    -1.009000000    -6.512000000
H    -3.666000000    -1.635000000    -7.321000000
C    -3.962000000    -1.526000000    -5.259000000
O    -3.384000000    -2.754000000    -4.992000000
C    -2.045000000    -2.841000000    -4.749000000
C    -1.583000000    -4.160000000    -4.664000000
H    -2.303000000    -4.970000000    -4.747000000
C    -0.228000000    -4.389000000    -4.404000000
O     0.234000000    -5.677000000    -4.190000000
C     1.106000000    -6.136000000    -3.246000000
C     0.729000000    -6.076000000    -1.896000000
H    -0.285000000    -5.782000000    -1.638000000
C     2.296000000    -6.799000000    -3.651000000
H     2.697000000    -6.844000000    -4.660000000
C     3.173000000    -7.188000000    -2.668000000
H     4.077000000    -7.755000000    -2.874000000
C     2.826000000    -7.120000000    -1.318000000
H     3.563000000    -7.457000000    -0.593000000
C     1.673000000    -6.506000000    -0.940000000
O     1.309000000    -6.362000000     0.394000000
C     1.919000000    -5.416000000     1.232000000
C     1.857000000    -5.645000000     2.610000000
H     1.248000000    -6.450000000     3.015000000
C     2.436000000    -4.711000000     3.521000000
O     2.281000000    -4.881000000     4.869000000
C     2.061000000    -3.822000000     5.764000000
C     3.079000000    -3.376000000     6.597000000
H     4.035000000    -3.894000000     6.602000000
C     2.893000000    -2.270000000     7.366000000
H     3.694000000    -1.841000000     7.963000000
C     1.691000000    -1.591000000     7.415000000
H     1.569000000    -0.748000000     8.090000000
C     0.685000000    -1.984000000     6.511000000
C     0.815000000    -3.143000000     5.711000000
H     0.010000000    -3.332000000     5.006000000
C    -1.849000000    -1.602000000    -0.849000000
H    -2.568000000    -1.713000000    -1.656000000
C    -0.998000000    -0.464000000    -0.886000000
H    -1.035000000     0.217000000    -1.732000000
C    -0.022000000    -0.229000000     0.125000000
H     0.753000000     0.536000000    -0.003000000
C    -0.032000000    -1.048000000     1.194000000
H     0.710000000    -0.905000000     1.976000000
C    -1.031000000    -2.051000000     1.329000000
H    -0.985000000    -2.719000000     2.185000000
C    -1.851000000    -2.384000000     0.264000000
C    -2.821000000    -3.558000000     0.263000000
O    -2.985000000    -4.139000000     1.316000000
O    -3.249000000    -3.981000000    -0.812000000
O    -9.307000000    -5.278000000    -0.703000000
H    -8.611000000    -4.706000000    -1.027000000
H    -8.856000000    -5.909000000    -0.142000000
O    -6.084000000    -4.431000000    -0.086000000
H    -6.597000000    -4.245000000    -0.872000000
H    -5.204000000    -4.118000000    -0.294000000
O    -7.716000000    -3.599000000     1.974000000
H    -7.134000000    -3.966000000     1.309000000
H    -7.524000000    -2.661000000     1.970000000
O    -1.352000000    -8.963000000    -2.890000000
H    -1.281000000    -8.090000000    -3.276000000
H    -1.647000000    -8.804000000    -1.993000000
O    -6.749000000    -6.102000000     3.447000000
H    -7.230000000    -5.391000000     3.023000000
H    -5.900000000    -6.113000000     3.005000000
O    -4.407000000   -10.075000000    -0.892000000
H    -4.358000000    -9.919000000    -1.835000000
H    -4.766000000    -9.263000000    -0.533000000
O    -3.053000000    -3.276000000     5.202000000
H    -3.597000000    -2.946000000     4.487000000
H    -2.381000000    -3.801000000     4.768000000
O    -4.024000000    -6.377000000     2.143000000
H    -3.152000000    -6.740000000     2.298000000
H    -3.859000000    -5.520000000     1.749000000
O    -4.593000000    -7.484000000    -3.624000000
H    -3.931000000    -7.222000000    -2.983000000
H    -4.459000000    -6.890000000    -4.362000000
O    -2.030000000    -8.656000000    -0.242000000
H    -2.555000000    -9.452000000    -0.160000000
H    -1.161000000    -8.910000000     0.069000000
O    -7.349000000    -1.262000000    -1.244000000
H    -7.364000000    -0.607000000    -1.943000000
H    -7.682000000    -0.799000000    -0.476000000
O    -5.107000000    -4.040000000    -3.138000000
H    -4.609000000    -4.072000000    -2.321000000
H    -4.457000000    -3.823000000    -3.806000000
O    -1.820000000    -4.957000000     3.508000000
H    -2.342000000    -4.884000000     2.709000000
H    -1.776000000    -5.898000000     3.681000000
O    -7.577000000    -3.727000000    -2.051000000
H    -7.037000000    -3.824000000    -2.836000000
H    -7.474000000    -2.808000000    -1.802000000
O    -6.787000000    -1.007000000     2.728000000
H    -6.789000000    -0.542000000     3.564000000
H    -6.123000000    -1.688000000     2.834000000
O    -4.398000000    -2.360000000     2.800000000
H    -4.015000000    -3.076000000     2.293000000
H    -3.949000000    -1.576000000     2.484000000
O    -1.774000000    -7.869000000     2.893000000
H    -1.394000000    -8.577000000     2.373000000
H    -1.609000000    -8.125000000     3.801000000
O    -5.005000000    -7.662000000     0.088000000
H    -4.655000000    -7.227000000     0.865000000
H    -5.292000000    -6.946000000    -0.479000000
O    -2.810000000    -6.287000000    -1.946000000
H    -2.616000000    -6.853000000    -1.199000000
H    -2.912000000    -5.415000000    -1.565000000
