215
-1454.65342
C    -2.960000000    -1.824000000     3.159000000
H    -2.368000000    -2.590000000     2.665000000
C    -3.828000000    -1.105000000     2.274000000
C    -4.583000000    -0.064000000     2.914000000
H    -5.297000000     0.450000000     2.276000000
C    -3.858000000    -1.323000000     0.783000000
O    -3.941000000    -2.735000000     0.595000000
H    -2.890000000    -0.919000000     0.450000000
O    -4.959000000    -0.667000000     0.087000000
C    -4.603000000     0.060000000    -1.074000000
C    -4.343000000     1.387000000    -0.932000000
H    -4.412000000     1.880000000     0.034000000
C    -3.784000000     2.099000000    -1.964000000
O    -3.237000000     3.344000000    -1.654000000
C    -3.583000000     1.546000000    -3.214000000
C    -2.846000000     2.311000000    -4.384000000
H    -3.200000000     1.822000000    -5.294000000
C    -1.286000000     2.192000000    -4.282000000
C    -0.619000000     1.119000000    -4.919000000
H    -1.195000000     0.386000000    -5.477000000
H    -3.134000000     3.361000000    -4.296000000
C    -3.974000000     0.214000000    -3.361000000
H    -3.854000000    -0.292000000    -4.316000000
C    -4.479000000    -0.584000000    -2.269000000
C    -4.643000000    -2.137000000    -2.297000000
H    -4.825000000    -2.392000000    -3.343000000
H    -5.529000000    -2.536000000    -1.797000000
C    -3.382000000    -2.893000000    -1.821000000
C    -2.508000000    -3.275000000    -2.771000000
H    -2.490000000    -2.861000000    -3.776000000
C    -3.144000000    -3.251000000    -0.466000000
C    -2.104000000    -4.058000000    -0.062000000
H    -1.956000000    -4.500000000     0.920000000
C    -1.226000000    -4.490000000    -1.070000000
O    -0.097000000    -5.154000000    -0.646000000
C     0.971000000    -4.270000000    -0.367000000
C     1.720000000    -4.655000000     0.940000000
C     3.080000000    -4.393000000     1.055000000
H     3.584000000    -3.906000000     0.224000000
C     1.027000000    -5.234000000     2.045000000
H    -0.046000000    -5.409000000     2.036000000
O     1.853000000    -4.335000000    -1.506000000
H     0.623000000    -3.227000000    -0.412000000
C    -1.457000000    -4.116000000    -2.377000000
C    -0.434000000    -4.431000000    -3.450000000
H    -0.846000000    -4.453000000    -4.462000000
H    -0.042000000    -5.426000000    -3.231000000
C     0.728000000    -3.462000000    -3.497000000
C     0.660000000    -2.333000000    -4.394000000
H    -0.150000000    -2.201000000    -5.108000000
C     1.842000000    -3.495000000    -2.567000000
C     2.756000000    -2.426000000    -2.575000000
H     3.595000000    -2.534000000    -1.892000000
C     2.702000000    -1.441000000    -3.528000000
O     3.603000000    -0.380000000    -3.420000000
C     3.164000000     0.834000000    -2.700000000
C     4.211000000     1.332000000    -1.695000000
C     4.750000000     0.503000000    -0.697000000
H     4.535000000    -0.560000000    -0.777000000
C     4.323000000     2.720000000    -1.544000000
H     3.751000000     3.367000000    -2.204000000
O     2.846000000     1.800000000    -3.731000000
H     2.303000000     0.540000000    -2.083000000
C     1.661000000    -1.332000000    -4.514000000
C     1.641000000    -0.130000000    -5.453000000
H     1.114000000    -0.396000000    -6.372000000
H     2.635000000     0.070000000    -5.859000000
C     0.834000000     1.000000000    -4.810000000
C     1.518000000     1.909000000    -4.044000000
C     0.825000000     2.881000000    -3.314000000
H     1.399000000     3.579000000    -2.709000000
C    -0.530000000     3.039000000    -3.518000000
O    -1.200000000     3.990000000    -2.723000000
C    -1.793000000     3.484000000    -1.521000000
H    -1.285000000     2.549000000    -1.241000000
C    -1.505000000     4.413000000    -0.390000000
C    -2.355000000     4.513000000     0.714000000
H    -3.289000000     3.958000000     0.731000000
C    -0.271000000     5.055000000    -0.339000000
H     0.499000000     4.880000000    -1.086000000
C     0.046000000     5.882000000     0.728000000
O     1.151000000     6.706000000     0.835000000
C    -0.771000000     5.883000000     1.847000000
H    -0.491000000     6.409000000     2.756000000
C    -1.958000000     5.167000000     1.835000000
O    -2.755000000     5.113000000     2.997000000
C    -3.952000000     4.401000000     3.164000000
C    -4.027000000     3.205000000     3.967000000
H    -3.143000000     2.695000000     4.341000000
C    -5.090000000     4.835000000     2.468000000
H    -5.020000000     5.698000000     1.811000000
C    -6.282000000     4.130000000     2.602000000
H    -7.172000000     4.405000000     2.042000000
C    -6.390000000     2.994000000     3.421000000
H    -7.369000000     2.522000000     3.423000000
C    -5.223000000     2.523000000     4.135000000
O    -5.249000000     1.269000000     4.774000000
C    -4.595000000     0.157000000     4.270000000
C    -3.707000000    -0.569000000     5.084000000
H    -3.620000000    -0.282000000     6.129000000
C    -2.856000000    -1.577000000     4.554000000
O    -1.829000000    -2.151000000     5.363000000
C    -1.608000000    -3.518000000     5.207000000
C    -0.356000000    -3.954000000     4.718000000
H     0.350000000    -3.191000000     4.402000000
C    -2.551000000    -4.384000000     5.714000000
H    -3.473000000    -3.986000000     6.129000000
C    -2.276000000    -5.797000000     5.690000000
H    -2.907000000    -6.528000000     6.191000000
C    -1.091000000    -6.259000000     5.137000000
H    -0.856000000    -7.318000000     5.204000000
C    -0.175000000    -5.369000000     4.679000000
O     1.058000000    -5.843000000     4.262000000
C     1.747000000    -5.366000000     3.235000000
C     3.117000000    -5.149000000     3.291000000
H     3.617000000    -5.375000000     4.229000000
C     3.752000000    -4.565000000     2.195000000
O     5.103000000    -4.359000000     2.359000000
C     5.761000000    -3.379000000     1.642000000
C     5.383000000    -2.013000000     1.778000000
H     4.505000000    -1.726000000     2.350000000
C     6.878000000    -3.746000000     0.858000000
H     7.181000000    -4.783000000     0.743000000
C     7.661000000    -2.739000000     0.277000000
H     8.513000000    -3.034000000    -0.330000000
C     7.370000000    -1.429000000     0.489000000
H     7.963000000    -0.675000000    -0.021000000
C     6.246000000    -1.064000000     1.202000000
O     6.002000000     0.235000000     1.340000000
C     5.512000000     1.108000000     0.357000000
C     5.688000000     2.469000000     0.406000000
H     6.283000000     2.895000000     1.209000000
C     5.108000000     3.251000000    -0.472000000
O     5.268000000     4.569000000    -0.324000000
C     4.313000000     5.511000000    -0.561000000
C     4.656000000     6.485000000    -1.442000000
H     5.676000000     6.532000000    -1.817000000
C     3.749000000     7.481000000    -1.771000000
H     4.046000000     8.345000000    -2.361000000
C     2.564000000     7.576000000    -0.983000000
H     1.861000000     8.404000000    -0.943000000
C     2.221000000     6.564000000    -0.042000000
C     3.128000000     5.548000000     0.108000000
H     2.911000000     4.738000000     0.800000000
C     0.013000000    -0.121000000     2.538000000
H    -0.304000000    -0.614000000     3.453000000
C    -0.164000000    -0.664000000     1.255000000
H    -0.680000000    -1.620000000     1.203000000
C     0.063000000     0.081000000     0.078000000
H    -0.090000000    -0.277000000    -0.903000000
C     0.548000000     1.417000000     0.213000000
H     0.651000000     1.979000000    -0.712000000
C     0.834000000     1.932000000     1.485000000
H     1.275000000     2.925000000     1.532000000
C     0.590000000     1.162000000     2.632000000
C     0.934000000     1.750000000     3.990000000
O     0.862000000     2.957000000     4.089000000
O     1.253000000     1.104000000     4.974000000
O     3.616000000     2.406000000     8.452000000
H     4.266000000     3.098000000     8.578000000
H     3.591000000     2.272000000     7.504000000
O     1.659000000    -3.688000000     7.082000000
H     1.250000000    -2.915000000     7.470000000
H     2.282000000    -3.337000000     6.447000000
O     2.544000000     5.619000000     7.066000000
H     2.703000000     5.486000000     8.000000000
H     1.691000000     6.050000000     7.026000000
O    -2.193000000     3.077000000     6.573000000
H    -3.096000000     3.382000000     6.494000000
H    -1.746000000     3.450000000     5.813000000
O     6.179000000     1.401000000     6.506000000
H     5.340000000     1.589000000     6.086000000
H     6.809000000     1.385000000     5.785000000
O     3.135000000     8.116000000     5.224000000
H     2.976000000     7.291000000     5.683000000
H     3.698000000     8.614000000     5.815000000
O     0.378000000     8.428000000     3.976000000
H     0.961000000     7.850000000     3.484000000
H     0.017000000     7.872000000     4.667000000
O     2.923000000    -0.787000000     4.616000000
H     3.390000000    -0.183000000     4.038000000
H     2.100000000    -0.339000000     4.814000000
O     0.265000000     4.525000000     6.046000000
H     0.388000000     3.968000000     5.278000000
H     0.922000000     4.219000000     6.671000000
O     1.272000000     3.560000000     9.393000000
H     0.623000000     2.877000000     9.226000000
H     2.090000000     3.204000000     9.045000000
O     3.992000000    -2.897000000     5.626000000
H     3.513000000    -2.129000000     5.315000000
H     4.883000000    -2.772000000     5.300000000
O     0.225000000     1.357000000     7.521000000
H    -0.201000000     1.846000000     6.817000000
H     1.078000000     1.113000000     7.161000000
O    -1.693000000     2.508000000     9.231000000
H    -1.229000000     1.671000000     9.266000000
H    -1.627000000     2.779000000     8.315000000
O     6.631000000     3.762000000     4.760000000
H     6.051000000     3.834000000     5.518000000
H     6.040000000     3.737000000     4.008000000
O     0.742000000    -1.537000000     8.497000000
H     1.592000000    -1.271000000     8.845000000
H     0.497000000    -0.832000000     7.898000000
O     5.001000000     4.484000000     2.768000000
H     4.106000000     4.737000000     2.993000000
H     4.996000000     4.413000000     1.813000000
O     2.444000000     5.266000000     3.482000000
H     2.157000000     5.153000000     4.388000000
H     1.675000000     5.043000000     2.958000000
O     3.745000000     2.272000000     5.586000000
H     3.064000000     1.644000000     5.346000000
H     3.468000000     3.093000000     5.180000000
O    -0.918000000     7.080000000     6.399000000
H    -0.872000000     6.967000000     7.348000000
H    -0.647000000     6.233000000     6.044000000
