215
-1456.17798
C    -3.408000000    -2.347000000     2.997000000
H    -2.977000000    -3.176000000     2.440000000
C    -4.051000000    -1.390000000     2.265000000
C    -4.570000000    -0.260000000     2.965000000
H    -4.980000000     0.645000000     2.525000000
C    -3.951000000    -1.530000000     0.764000000
O    -3.997000000    -2.938000000     0.272000000
H    -2.981000000    -1.112000000     0.456000000
O    -4.993000000    -0.707000000     0.134000000
C    -4.526000000     0.142000000    -0.847000000
C    -4.226000000     1.436000000    -0.500000000
H    -4.432000000     1.773000000     0.513000000
C    -3.708000000     2.307000000    -1.483000000
O    -3.348000000     3.572000000    -1.152000000
C    -3.526000000     1.863000000    -2.796000000
C    -2.951000000     2.793000000    -3.849000000
H    -3.152000000     2.437000000    -4.862000000
C    -1.420000000     2.693000000    -3.682000000
C    -0.732000000     1.809000000    -4.566000000
H    -1.312000000     1.077000000    -5.121000000
H    -3.252000000     3.840000000    -3.777000000
C    -3.806000000     0.557000000    -3.087000000
H    -3.672000000     0.287000000    -4.132000000
C    -4.277000000    -0.341000000    -2.131000000
C    -4.455000000    -1.785000000    -2.498000000
H    -4.637000000    -1.792000000    -3.574000000
H    -5.369000000    -2.127000000    -2.008000000
C    -3.386000000    -2.679000000    -2.107000000
C    -2.391000000    -2.920000000    -3.068000000
H    -2.583000000    -2.368000000    -3.985000000
C    -3.187000000    -3.221000000    -0.801000000
C    -2.054000000    -4.008000000    -0.527000000
H    -1.848000000    -4.419000000     0.458000000
C    -1.075000000    -4.184000000    -1.557000000
O     0.130000000    -4.809000000    -1.221000000
C     1.227000000    -3.837000000    -0.972000000
C     1.950000000    -4.206000000     0.274000000
C     3.325000000    -4.178000000     0.382000000
H     4.010000000    -3.855000000    -0.397000000
C     1.213000000    -4.629000000     1.327000000
H     0.143000000    -4.468000000     1.221000000
O     2.054000000    -3.867000000    -2.159000000
H     0.751000000    -2.869000000    -0.758000000
C    -1.223000000    -3.648000000    -2.793000000
C    -0.202000000    -3.899000000    -3.960000000
H    -0.776000000    -3.889000000    -4.889000000
H     0.206000000    -4.912000000    -3.971000000
C     0.874000000    -2.859000000    -3.980000000
C     0.713000000    -1.677000000    -4.757000000
H    -0.114000000    -1.508000000    -5.441000000
C     1.933000000    -2.899000000    -3.107000000
C     2.923000000    -1.951000000    -3.068000000
H     3.779000000    -2.042000000    -2.404000000
C     2.753000000    -0.836000000    -3.817000000
O     3.588000000     0.215000000    -3.658000000
C     3.149000000     1.171000000    -2.629000000
C     4.129000000     1.341000000    -1.510000000
C     5.164000000     0.420000000    -1.243000000
H     5.338000000    -0.381000000    -1.957000000
C     3.824000000     2.358000000    -0.618000000
H     3.044000000     3.083000000    -0.841000000
O     2.720000000     2.374000000    -3.266000000
H     2.173000000     0.827000000    -2.257000000
C     1.633000000    -0.671000000    -4.650000000
C     1.433000000     0.706000000    -5.305000000
H     0.977000000     0.605000000    -6.293000000
H     2.414000000     1.116000000    -5.554000000
C     0.665000000     1.680000000    -4.453000000
C     1.366000000     2.493000000    -3.519000000
C     0.692000000     3.486000000    -2.764000000
H     1.191000000     4.187000000    -2.099000000
C    -0.718000000     3.611000000    -2.854000000
O    -1.435000000     4.431000000    -2.024000000
C    -1.950000000     3.824000000    -0.817000000
H    -1.405000000     2.875000000    -0.712000000
C    -1.618000000     4.674000000     0.443000000
C    -2.389000000     4.559000000     1.565000000
H    -3.312000000     4.005000000     1.418000000
C    -0.462000000     5.436000000     0.474000000
H     0.177000000     5.616000000    -0.388000000
C    -0.099000000     6.065000000     1.604000000
O     1.025000000     6.820000000     1.651000000
C    -0.948000000     6.030000000     2.744000000
H    -0.559000000     6.408000000     3.686000000
C    -2.117000000     5.247000000     2.767000000
O    -2.868000000     5.194000000     3.934000000
C    -3.960000000     4.356000000     4.087000000
C    -3.805000000     3.048000000     4.546000000
H    -2.783000000     2.835000000     4.850000000
C    -5.223000000     4.888000000     3.749000000
H    -5.364000000     5.887000000     3.344000000
C    -6.356000000     4.037000000     4.025000000
H    -7.349000000     4.464000000     3.911000000
C    -6.199000000     2.760000000     4.484000000
H    -7.086000000     2.187000000     4.745000000
C    -4.879000000     2.178000000     4.638000000
O    -4.801000000     0.896000000     5.102000000
C    -4.295000000    -0.157000000     4.315000000
C    -3.732000000    -1.185000000     5.061000000
H    -3.642000000    -1.127000000     6.142000000
C    -3.283000000    -2.287000000     4.389000000
O    -2.607000000    -3.276000000     5.103000000
C    -2.092000000    -4.391000000     4.484000000
C    -0.711000000    -4.475000000     4.300000000
H    -0.094000000    -3.716000000     4.774000000
C    -3.025000000    -5.383000000     4.093000000
H    -4.111000000    -5.345000000     4.139000000
C    -2.444000000    -6.527000000     3.511000000
H    -3.115000000    -7.263000000     3.074000000
C    -1.082000000    -6.604000000     3.147000000
H    -0.714000000    -7.462000000     2.590000000
C    -0.195000000    -5.602000000     3.577000000
O     1.123000000    -5.787000000     3.434000000
C     1.832000000    -5.205000000     2.451000000
C     3.218000000    -5.156000000     2.540000000
H     3.764000000    -5.504000000     3.412000000
C     3.971000000    -4.572000000     1.543000000
O     5.347000000    -4.540000000     1.616000000
C     6.190000000    -3.765000000     0.818000000
C     6.082000000    -2.376000000     0.972000000
H     5.451000000    -1.948000000     1.747000000
C     7.062000000    -4.329000000    -0.058000000
H     7.215000000    -5.403000000    -0.126000000
C     7.971000000    -3.541000000    -0.814000000
H     8.643000000    -3.888000000    -1.594000000
C     7.834000000    -2.174000000    -0.707000000
H     8.473000000    -1.556000000    -1.332000000
C     6.892000000    -1.551000000     0.183000000
O     6.939000000    -0.181000000     0.288000000
C     5.929000000     0.626000000    -0.056000000
C     5.663000000     1.679000000     0.800000000
H     6.225000000     1.827000000     1.718000000
C     4.694000000     2.626000000     0.420000000
O     4.402000000     3.702000000     1.275000000
C     3.961000000     4.938000000     0.856000000
C     4.294000000     5.478000000    -0.406000000
H     5.004000000     5.001000000    -1.077000000
C     3.592000000     6.605000000    -0.848000000
H     3.772000000     7.178000000    -1.754000000
C     2.565000000     7.128000000    -0.144000000
H     1.982000000     7.994000000    -0.444000000
C     2.261000000     6.549000000     1.066000000
C     2.928000000     5.515000000     1.604000000
H     2.416000000     4.971000000     2.393000000
C     0.899000000    -0.642000000     2.482000000
H     1.073000000    -1.394000000     3.247000000
C     0.492000000    -0.874000000     1.170000000
H     0.201000000    -1.877000000     0.867000000
C     0.457000000     0.182000000     0.277000000
H     0.196000000    -0.005000000    -0.733000000
C     0.893000000     1.437000000     0.699000000
H     0.941000000     2.262000000    -0.008000000
C     1.292000000     1.674000000     1.994000000
H     1.610000000     2.648000000     2.354000000
C     1.333000000     0.569000000     2.897000000
C     1.789000000     0.826000000     4.281000000
O     2.613000000     1.678000000     4.535000000
O     1.344000000     0.156000000     5.229000000
O     3.554000000    -3.225000000     5.742000000
H     2.864000000    -2.625000000     6.026000000
H     3.176000000    -4.097000000     5.857000000
O     4.813000000     6.808000000     4.536000000
H     4.245000000     6.088000000     4.260000000
H     4.254000000     7.584000000     4.490000000
O     1.121000000    -2.062000000     6.584000000
H     1.035000000    -1.276000000     6.045000000
H     1.285000000    -1.731000000     7.467000000
O     5.917000000     0.310000000     8.907000000
H     5.650000000     0.504000000     8.008000000
H     6.315000000     1.123000000     9.218000000
O     2.800000000     3.157000000     6.891000000
H     2.699000000     2.810000000     6.005000000
H     2.559000000     2.428000000     7.463000000
O     0.596000000    -4.399000000     7.587000000
H    -0.309000000    -4.708000000     7.613000000
H     0.550000000    -3.561000000     7.126000000
O    -1.057000000     0.694000000     6.056000000
H    -1.527000000    -0.086000000     5.762000000
H    -0.153000000     0.549000000     5.774000000
O     0.197000000     4.194000000     6.177000000
H     0.986000000     3.996000000     6.681000000
H     0.105000000     3.455000000     5.576000000
O     7.041000000     4.422000000     4.426000000
H     6.147000000     4.081000000     4.461000000
H     6.949000000     5.297000000     4.048000000
O     4.702000000     4.273000000     8.335000000
H     4.022000000     3.883000000     7.786000000
H     5.012000000     5.027000000     7.834000000
O     6.017000000     1.700000000     6.036000000
H     5.572000000     2.534000000     5.886000000
H     5.358000000     1.037000000     5.830000000
O     1.733000000    -1.256000000     8.890000000
H     2.673000000    -1.143000000     9.035000000
H     1.368000000    -1.381000000     9.766000000
O     2.095000000     3.982000000    10.266000000
H     1.549000000     3.733000000     9.520000000
H     2.275000000     4.912000000    10.131000000
O     0.680000000     1.948000000     8.436000000
H     0.652000000     1.831000000     9.386000000
H     0.261000000     1.162000000     8.086000000
O     5.808000000    -1.708000000     5.019000000
H     5.137000000    -2.383000000     5.114000000
H     5.399000000    -0.913000000     5.360000000
O     4.467000000     3.838000000     4.109000000
H     4.360000000     3.476000000     3.229000000
H     3.750000000     3.454000000     4.614000000
O    -2.755000000     1.357000000     8.835000000
H    -2.254000000     0.804000000     8.235000000
H    -3.625000000     0.960000000     8.857000000
O     4.049000000    -0.034000000     6.076000000
H     3.315000000     0.495000000     5.763000000
H     3.642000000    -0.713000000     6.614000000
O    -1.998000000     4.219000000     7.911000000
H    -1.163000000     4.357000000     7.465000000
H    -2.037000000     3.275000000     8.061000000
