215
-1443.33743
C    -3.092000000    -2.627000000     2.642000000
H    -2.569000000    -3.452000000     2.166000000
C    -3.632000000    -1.599000000     1.910000000
C    -4.303000000    -0.567000000     2.580000000
H    -4.792000000     0.208000000     1.995000000
C    -3.653000000    -1.670000000     0.340000000
O    -3.851000000    -2.980000000    -0.133000000
H    -2.749000000    -1.235000000    -0.112000000
O    -4.721000000    -0.823000000    -0.132000000
C    -4.466000000     0.083000000    -1.174000000
C    -4.209000000     1.387000000    -0.861000000
H    -4.448000000     1.775000000     0.126000000
C    -3.699000000     2.312000000    -1.731000000
O    -3.351000000     3.570000000    -1.304000000
C    -3.405000000     1.858000000    -3.011000000
C    -2.842000000     2.710000000    -4.116000000
H    -3.265000000     2.304000000    -5.037000000
C    -1.341000000     2.743000000    -4.051000000
C    -0.502000000     1.855000000    -4.725000000
H    -0.897000000     1.116000000    -5.418000000
H    -3.257000000     3.715000000    -4.020000000
C    -3.593000000     0.497000000    -3.379000000
H    -3.425000000     0.110000000    -4.381000000
C    -4.116000000    -0.363000000    -2.468000000
C    -4.318000000    -1.811000000    -2.819000000
H    -4.459000000    -2.049000000    -3.875000000
H    -5.210000000    -2.158000000    -2.294000000
C    -3.089000000    -2.645000000    -2.465000000
C    -2.097000000    -2.853000000    -3.390000000
H    -2.060000000    -2.385000000    -4.371000000
C    -3.060000000    -3.314000000    -1.239000000
C    -2.055000000    -4.306000000    -0.973000000
H    -2.092000000    -4.792000000    -0.002000000
C    -1.014000000    -4.490000000    -1.861000000
O     0.145000000    -5.005000000    -1.302000000
C     1.148000000    -4.061000000    -0.923000000
C     1.876000000    -4.443000000     0.313000000
C     3.226000000    -4.180000000     0.490000000
H     3.919000000    -3.856000000    -0.282000000
C     1.156000000    -5.134000000     1.275000000
H     0.104000000    -5.390000000     1.184000000
O     2.146000000    -3.879000000    -1.989000000
H     0.734000000    -3.049000000    -0.803000000
C    -1.049000000    -3.756000000    -3.037000000
C     0.025000000    -3.787000000    -4.053000000
H    -0.372000000    -3.760000000    -5.069000000
H     0.515000000    -4.761000000    -3.999000000
C     1.040000000    -2.670000000    -3.836000000
C     0.947000000    -1.557000000    -4.650000000
H     0.172000000    -1.378000000    -5.391000000
C     2.032000000    -2.798000000    -2.820000000
C     2.900000000    -1.763000000    -2.655000000
H     3.673000000    -1.745000000    -1.891000000
C     2.847000000    -0.629000000    -3.397000000
O     3.681000000     0.414000000    -2.966000000
C     3.047000000     1.485000000    -2.204000000
C     3.963000000     1.836000000    -1.032000000
C     4.927000000     0.908000000    -0.565000000
H     5.150000000    -0.049000000    -1.029000000
C     3.815000000     3.021000000    -0.353000000
H     3.020000000     3.711000000    -0.625000000
O     2.766000000     2.597000000    -3.095000000
H     2.111000000     1.067000000    -1.804000000
C     1.863000000    -0.508000000    -4.408000000
C     1.675000000     0.783000000    -5.181000000
H     1.194000000     0.363000000    -6.067000000
H     2.618000000     1.259000000    -5.459000000
C     0.799000000     1.803000000    -4.414000000
C     1.444000000     2.744000000    -3.554000000
C     0.642000000     3.732000000    -2.983000000
H     1.056000000     4.390000000    -2.224000000
C    -0.742000000     3.716000000    -3.161000000
O    -1.438000000     4.483000000    -2.312000000
C    -1.919000000     3.877000000    -1.127000000
H    -1.338000000     2.949000000    -1.021000000
C    -1.695000000     4.647000000     0.173000000
C    -2.396000000     4.252000000     1.297000000
H    -3.105000000     3.428000000     1.251000000
C    -0.685000000     5.673000000     0.248000000
H    -0.047000000     5.903000000    -0.602000000
C    -0.455000000     6.272000000     1.461000000
O     0.469000000     7.282000000     1.590000000
C    -1.159000000     5.828000000     2.608000000
H    -0.959000000     6.222000000     3.601000000
C    -2.139000000     4.835000000     2.547000000
O    -2.771000000     4.403000000     3.748000000
C    -3.953000000     3.700000000     3.814000000
C    -3.936000000     2.304000000     4.024000000
H    -2.974000000     1.806000000     4.106000000
C    -5.138000000     4.352000000     3.545000000
H    -5.059000000     5.422000000     3.374000000
C    -6.388000000     3.714000000     3.517000000
H    -7.263000000     4.325000000     3.310000000
C    -6.411000000     2.331000000     3.728000000
H    -7.345000000     1.774000000     3.713000000
C    -5.232000000     1.694000000     4.109000000
O    -5.266000000     0.384000000     4.479000000
C    -4.444000000    -0.609000000     3.949000000
C    -3.794000000    -1.594000000     4.686000000
H    -3.853000000    -1.593000000     5.771000000
C    -3.092000000    -2.590000000     4.024000000
O    -2.525000000    -3.631000000     4.809000000
C    -2.065000000    -4.833000000     4.370000000
C    -0.669000000    -4.869000000     3.996000000
H    -0.122000000    -3.933000000     4.068000000
C    -2.869000000    -5.965000000     4.308000000
H    -3.937000000    -5.797000000     4.424000000
C    -2.300000000    -7.167000000     3.914000000
H    -3.065000000    -7.933000000     3.819000000
C    -0.940000000    -7.277000000     3.619000000
H    -0.495000000    -8.234000000     3.361000000
C    -0.124000000    -6.089000000     3.705000000
O     1.205000000    -6.204000000     3.378000000
C     1.844000000    -5.552000000     2.454000000
C     3.220000000    -5.260000000     2.627000000
H     3.739000000    -5.465000000     3.560000000
C     3.898000000    -4.612000000     1.615000000
O     5.242000000    -4.446000000     1.843000000
C     6.051000000    -3.487000000     1.331000000
C     5.731000000    -2.143000000     1.521000000
H     4.816000000    -1.926000000     2.065000000
C     7.153000000    -3.861000000     0.604000000
H     7.418000000    -4.887000000     0.361000000
C     7.952000000    -2.872000000     0.091000000
H     8.869000000    -3.097000000    -0.447000000
C     7.597000000    -1.523000000     0.245000000
H     8.220000000    -0.752000000    -0.201000000
C     6.476000000    -1.113000000     0.897000000
O     6.412000000     0.263000000     1.180000000
C     5.514000000     1.180000000     0.590000000
C     5.257000000     2.256000000     1.313000000
H     5.817000000     2.437000000     2.227000000
C     4.449000000     3.259000000     0.827000000
O     4.323000000     4.418000000     1.604000000
C     3.736000000     5.585000000     1.144000000
C     4.226000000     6.328000000     0.067000000
H     5.156000000     6.042000000    -0.415000000
C     3.590000000     7.372000000    -0.459000000
H     3.990000000     7.777000000    -1.384000000
C     2.341000000     7.779000000     0.060000000
H     1.661000000     8.504000000    -0.379000000
C     1.770000000     7.034000000     1.091000000
C     2.480000000     5.929000000     1.609000000
H     2.112000000     5.506000000     2.540000000
C    -0.399000000     0.809000000     2.714000000
H    -0.650000000     0.338000000     3.661000000
C    -0.630000000     0.238000000     1.510000000
H    -1.089000000    -0.742000000     1.402000000
C    -0.179000000     0.873000000     0.372000000
H    -0.464000000     0.477000000    -0.620000000
C     0.453000000     2.042000000     0.406000000
H     0.752000000     2.508000000    -0.529000000
C     0.768000000     2.640000000     1.642000000
H     1.313000000     3.580000000     1.620000000
C     0.253000000     2.049000000     2.806000000
C     0.775000000     2.470000000     4.126000000
O     1.718000000     3.280000000     4.186000000
O     0.304000000     1.917000000     5.076000000
O     0.454000000    -2.138000000     5.866000000
H     0.009000000    -2.724000000     6.478000000
H    -0.029000000    -1.314000000     5.930000000
O     2.629000000     8.828000000     5.988000000
H     2.503000000     7.905000000     5.771000000
H     1.996000000     8.999000000     6.685000000
O    -2.726000000     1.705000000     7.824000000
H    -2.279000000     2.438000000     8.246000000
H    -3.657000000     1.875000000     7.969000000
O     5.937000000     7.078000000     3.986000000
H     5.482000000     7.761000000     4.479000000
H     5.241000000     6.493000000     3.688000000
O     4.671000000     3.695000000     6.787000000
H     4.500000000     4.084000000     5.930000000
H     3.817000000     3.679000000     7.218000000
O     2.569000000     3.156000000     9.664000000
H     2.943000000     4.006000000     9.893000000
H     2.166000000     3.295000000     8.807000000
O     4.773000000    -0.920000000     4.746000000
H     3.945000000    -0.440000000     4.753000000
H     5.385000000    -0.348000000     5.210000000
O     4.580000000     0.937000000     7.565000000
H     4.814000000     1.799000000     7.222000000
H     3.764000000     0.714000000     7.117000000
O    -1.449000000     6.764000000     6.251000000
H    -1.292000000     5.820000000     6.249000000
H    -2.319000000     6.862000000     6.638000000
O     2.269000000     0.357000000     5.962000000
H     1.675000000    -0.256000000     6.395000000
H     1.692000000     1.011000000     5.567000000
O    -1.094000000     4.168000000     6.350000000
H    -1.290000000     3.787000000     5.494000000
H    -0.676000000     3.459000000     6.838000000
O     1.466000000     6.566000000     8.603000000
H     1.973000000     6.137000000     7.914000000
H     0.994000000     7.267000000     8.153000000
O     2.957000000    -3.366000000     6.696000000
H     3.130000000    -2.610000000     7.257000000
H     2.156000000    -3.135000000     6.225000000
O    -1.108000000     0.054000000     6.419000000
H    -1.877000000     0.348000000     6.908000000
H    -0.675000000     0.862000000     6.146000000
O    -1.892000000     3.632000000     9.511000000
H    -1.797000000     4.542000000     9.231000000
H    -2.349000000     3.687000000    10.351000000
O     3.935000000     4.360000000     4.452000000
H     3.107000000     3.889000000     4.551000000
H     3.962000000     4.605000000     3.527000000
O     6.876000000     3.551000000     4.853000000
H     5.938000000     3.375000000     4.921000000
H     7.080000000     4.068000000     5.632000000
O     1.386000000     6.312000000     5.378000000
H     0.530000000     6.658000000     5.632000000
H     1.185000000     5.570000000     4.807000000
O     1.904000000     3.775000000     6.866000000
H     1.750000000     3.184000000     6.129000000
H     1.614000000     4.631000000     6.551000000
