215
-1445.64752
C    -3.581000000    -2.799000000     2.142000000
H    -3.053000000    -3.553000000     1.564000000
C    -4.171000000    -1.725000000     1.505000000
C    -4.757000000    -0.746000000     2.300000000
H    -5.279000000     0.088000000     1.837000000
C    -3.996000000    -1.540000000    -0.019000000
O    -4.012000000    -2.820000000    -0.719000000
H    -3.041000000    -1.004000000    -0.129000000
O    -4.980000000    -0.651000000    -0.502000000
C    -4.450000000     0.251000000    -1.433000000
C    -4.207000000     1.569000000    -1.035000000
H    -4.632000000     1.947000000    -0.109000000
C    -3.552000000     2.412000000    -1.849000000
O    -3.097000000     3.600000000    -1.350000000
C    -3.056000000     1.946000000    -3.110000000
C    -2.374000000     2.863000000    -4.103000000
H    -2.670000000     2.631000000    -5.128000000
C    -0.864000000     2.875000000    -3.973000000
C    -0.096000000     2.043000000    -4.641000000
H    -0.499000000     1.335000000    -5.360000000
H    -2.834000000     3.852000000    -4.037000000
C    -3.259000000     0.633000000    -3.468000000
H    -2.771000000     0.307000000    -4.384000000
C    -4.009000000    -0.234000000    -2.709000000
C    -4.182000000    -1.596000000    -3.330000000
H    -4.282000000    -1.525000000    -4.415000000
H    -5.140000000    -2.035000000    -3.045000000
C    -3.051000000    -2.553000000    -2.935000000
C    -2.144000000    -2.892000000    -3.858000000
H    -2.199000000    -2.383000000    -4.817000000
C    -3.019000000    -3.064000000    -1.609000000
C    -1.926000000    -3.798000000    -1.188000000
H    -1.980000000    -4.208000000    -0.183000000
C    -0.938000000    -4.156000000    -2.087000000
O     0.073000000    -4.914000000    -1.538000000
C     1.153000000    -4.110000000    -0.929000000
C     1.652000000    -4.691000000     0.346000000
C     2.996000000    -4.532000000     0.704000000
H     3.605000000    -3.858000000     0.105000000
C     0.834000000    -5.481000000     1.156000000
H    -0.190000000    -5.669000000     0.844000000
O     2.120000000    -3.856000000    -1.956000000
H     0.729000000    -3.157000000    -0.580000000
C    -1.015000000    -3.654000000    -3.392000000
C     0.140000000    -3.638000000    -4.210000000
H    -0.080000000    -3.499000000    -5.270000000
H     0.773000000    -4.504000000    -4.008000000
C     1.167000000    -2.540000000    -3.803000000
C     1.176000000    -1.391000000    -4.529000000
H     0.466000000    -1.330000000    -5.350000000
C     2.083000000    -2.755000000    -2.812000000
C     3.055000000    -1.817000000    -2.570000000
H     3.864000000    -1.951000000    -1.857000000
C     3.144000000    -0.603000000    -3.295000000
O     3.918000000     0.402000000    -2.770000000
C     3.343000000     1.593000000    -2.154000000
C     4.084000000     1.916000000    -0.817000000
C     4.375000000     0.806000000    -0.006000000
H     3.946000000    -0.144000000    -0.316000000
C     4.232000000     3.227000000    -0.354000000
H     3.945000000     4.045000000    -1.010000000
O     3.211000000     2.712000000    -3.019000000
H     2.346000000     1.184000000    -1.935000000
C     2.180000000    -0.346000000    -4.296000000
C     2.153000000     0.920000000    -5.129000000
H     1.834000000     0.686000000    -6.146000000
H     3.195000000     1.247000000    -5.162000000
C     1.305000000     1.996000000    -4.390000000
C     1.880000000     2.900000000    -3.474000000
C     1.104000000     3.811000000    -2.814000000
H     1.514000000     4.357000000    -1.968000000
C    -0.288000000     3.807000000    -3.067000000
O    -1.120000000     4.509000000    -2.230000000
C    -1.655000000     3.738000000    -1.154000000
H    -1.119000000     2.777000000    -1.161000000
C    -1.352000000     4.407000000     0.182000000
C    -2.095000000     3.891000000     1.278000000
H    -2.776000000     3.044000000     1.273000000
C    -0.289000000     5.268000000     0.383000000
H     0.233000000     5.683000000    -0.475000000
C    -0.110000000     5.820000000     1.664000000
O     0.710000000     6.871000000     1.804000000
C    -0.809000000     5.360000000     2.764000000
H    -0.595000000     5.795000000     3.737000000
C    -1.793000000     4.376000000     2.512000000
O    -2.274000000     3.717000000     3.693000000
C    -3.588000000     3.276000000     3.820000000
C    -3.826000000     1.942000000     4.037000000
H    -3.004000000     1.249000000     4.198000000
C    -4.569000000     4.217000000     3.739000000
H    -4.342000000     5.264000000     3.557000000
C    -5.912000000     3.823000000     3.799000000
H    -6.763000000     4.493000000     3.703000000
C    -6.154000000     2.456000000     3.991000000
H    -7.173000000     2.127000000     4.176000000
C    -5.134000000     1.554000000     4.205000000
O    -5.384000000     0.177000000     4.404000000
C    -4.762000000    -0.772000000     3.672000000
C    -4.020000000    -1.790000000     4.258000000
H    -3.839000000    -1.662000000     5.322000000
C    -3.460000000    -2.795000000     3.523000000
O    -2.657000000    -3.712000000     4.259000000
C    -2.323000000    -4.940000000     3.880000000
C    -0.964000000    -5.277000000     3.716000000
H    -0.198000000    -4.515000000     3.836000000
C    -3.321000000    -5.853000000     3.618000000
H    -4.350000000    -5.505000000     3.633000000
C    -3.005000000    -7.146000000     3.315000000
H    -3.791000000    -7.811000000     2.965000000
C    -1.673000000    -7.538000000     3.166000000
H    -1.403000000    -8.526000000     2.802000000
C    -0.626000000    -6.562000000     3.339000000
O     0.681000000    -6.863000000     3.084000000
C     1.446000000    -6.078000000     2.318000000
C     2.747000000    -5.876000000     2.685000000
H     3.162000000    -6.364000000     3.563000000
C     3.487000000    -5.028000000     1.907000000
O     4.840000000    -4.691000000     2.217000000
C     5.518000000    -3.487000000     1.740000000
C     5.009000000    -2.320000000     2.184000000
H     4.153000000    -2.258000000     2.851000000
C     6.618000000    -3.514000000     0.884000000
H     6.905000000    -4.505000000     0.542000000
C     7.284000000    -2.372000000     0.446000000
H     7.941000000    -2.356000000    -0.419000000
C     6.655000000    -1.213000000     0.823000000
H     6.957000000    -0.277000000     0.361000000
C     5.586000000    -1.174000000     1.746000000
O     5.073000000     0.025000000     2.141000000
C     4.856000000     1.084000000     1.326000000
C     5.039000000     2.381000000     1.758000000
H     5.346000000     2.622000000     2.773000000
C     4.672000000     3.448000000     0.914000000
O     5.090000000     4.728000000     1.334000000
C     4.157000000     5.694000000     1.001000000
C     4.637000000     6.786000000     0.305000000
H     5.686000000     6.819000000     0.019000000
C     3.900000000     7.939000000     0.225000000
H     4.195000000     8.803000000    -0.364000000
C     2.555000000     8.031000000     0.825000000
H     1.927000000     8.912000000     0.717000000
C     2.026000000     6.872000000     1.382000000
C     2.839000000     5.726000000     1.468000000
H     2.400000000     4.841000000     1.922000000
C    -0.415000000     0.329000000     2.654000000
H    -0.862000000    -0.129000000     3.533000000
C    -0.672000000    -0.141000000     1.380000000
H    -1.430000000    -0.877000000     1.124000000
C    -0.020000000     0.465000000     0.285000000
H    -0.267000000     0.195000000    -0.762000000
C     0.955000000     1.508000000     0.482000000
H     1.362000000     2.009000000    -0.392000000
C     1.087000000     2.042000000     1.718000000
H     1.782000000     2.866000000     1.862000000
C     0.442000000     1.462000000     2.880000000
C     0.673000000     2.020000000     4.262000000
O     1.255000000     3.036000000     4.527000000
O     0.212000000     1.306000000     5.155000000
O    -0.964000000    -2.752000000     6.561000000
H    -1.492000000    -2.862000000     7.351000000
H    -1.592000000    -2.821000000     5.842000000
O     0.688000000     8.138000000     5.359000000
H     0.729000000     7.223000000     5.640000000
H     0.268000000     8.594000000     6.088000000
O    -3.007000000     1.271000000     9.666000000
H    -2.604000000     2.059000000    10.030000000
H    -2.530000000     1.113000000     8.851000000
O     3.777000000     6.823000000     4.707000000
H     3.369000000     7.674000000     4.547000000
H     3.043000000     6.209000000     4.745000000
O     4.089000000     2.934000000     8.205000000
H     3.882000000     3.831000000     8.467000000
H     3.258000000     2.577000000     7.892000000
O     3.851000000    -1.908000000     5.127000000
H     2.966000000    -1.611000000     4.916000000
H     4.269000000    -1.148000000     5.532000000
O     2.982000000    -0.300000000     8.400000000
H     3.738000000    -0.326000000     7.813000000
H     2.523000000     0.506000000     8.164000000
O    -0.934000000     6.087000000     8.195000000
H    -1.114000000     5.729000000     7.326000000
H    -1.766000000     6.010000000     8.663000000
O     1.193000000    -1.003000000     5.326000000
H     0.582000000    -1.496000000     5.873000000
H     0.836000000    -0.115000000     5.308000000
O    -1.049000000     4.253000000     6.168000000
H    -1.521000000     3.543000000     6.603000000
H    -0.694000000     3.853000000     5.374000000
O    -3.592000000     6.212000000     6.113000000
H    -3.069000000     6.568000000     5.395000000
H    -3.235000000     5.336000000     6.258000000
O     6.493000000     4.776000000     4.232000000
H     5.857000000     4.237000000     4.702000000
H     6.066000000     4.979000000     3.400000000
O     1.629000000     5.384000000     8.390000000
H     2.039000000     6.248000000     8.417000000
H     0.698000000     5.565000000     8.256000000
O     5.162000000     0.214000000     6.505000000
H     5.419000000     0.797000000     5.791000000
H     5.245000000     0.750000000     7.294000000
O    -1.648000000     1.443000000     7.169000000
H    -0.990000000     1.720000000     7.806000000
H    -1.151000000     1.281000000     6.367000000
O    -0.078000000     2.273000000     9.285000000
H     0.335000000     1.685000000     9.916000000
H     0.267000000     3.139000000     9.503000000
O     3.895000000     3.644000000     5.234000000
H     3.299000000     3.033000000     4.800000000
H     3.333000000     4.367000000     5.515000000
O     1.634000000     5.502000000     5.533000000
H     1.728000000     5.381000000     6.478000000
H     1.300000000     4.662000000     5.217000000
O     1.784000000     1.805000000     7.341000000
H     1.500000000     1.844000000     6.428000000
H     1.016000000     2.081000000     7.842000000
