215
-1454.75117
C    -4.472000000     1.785000000    -2.584000000
H    -3.787000000     1.525000000    -3.388000000
C    -4.030000000     2.693000000    -1.615000000
C    -4.905000000     3.031000000    -0.541000000
H    -4.646000000     3.815000000     0.165000000
C    -2.534000000     3.243000000    -1.653000000
O    -2.164000000     3.631000000    -2.963000000
H    -1.872000000     2.466000000    -1.244000000
O    -2.363000000     4.429000000    -0.857000000
C    -1.239000000     4.523000000    -0.150000000
C    -1.286000000     4.151000000     1.194000000
H    -2.280000000     3.935000000     1.576000000
C    -0.152000000     4.020000000     1.992000000
O    -0.259000000     3.460000000     3.243000000
C     1.095000000     4.491000000     1.488000000
C     2.378000000     4.402000000     2.177000000
H     3.067000000     5.167000000     1.814000000
C     3.106000000     3.089000000     2.051000000
C     4.106000000     2.853000000     1.134000000
H     4.423000000     3.667000000     0.486000000
H     2.303000000     4.667000000     3.234000000
C     1.208000000     4.805000000     0.129000000
H     2.150000000     4.950000000    -0.394000000
C    -0.002000000     4.939000000    -0.676000000
C     0.176000000     5.292000000    -2.146000000
H     1.034000000     5.951000000    -2.297000000
H    -0.691000000     5.853000000    -2.501000000
C     0.220000000     4.004000000    -2.945000000
C     1.464000000     3.526000000    -3.302000000
H     2.350000000     4.052000000    -2.955000000
C    -0.917000000     3.259000000    -3.318000000
C    -0.774000000     2.094000000    -3.996000000
H    -1.621000000     1.489000000    -4.308000000
C     0.463000000     1.590000000    -4.276000000
O     0.561000000     0.293000000    -4.760000000
C     0.995000000    -0.765000000    -3.917000000
C     0.253000000    -2.090000000    -4.250000000
C     0.774000000    -3.357000000    -3.938000000
H     1.713000000    -3.507000000    -3.413000000
C    -1.045000000    -2.026000000    -4.685000000
H    -1.487000000    -1.033000000    -4.672000000
O     2.353000000    -1.084000000    -4.055000000
H     0.816000000    -0.559000000    -2.851000000
C     1.603000000     2.316000000    -3.933000000
C     3.006000000     1.868000000    -4.209000000
H     3.689000000     2.718000000    -4.274000000
H     3.018000000     1.486000000    -5.232000000
C     3.589000000     0.849000000    -3.245000000
C     4.397000000     1.326000000    -2.211000000
H     4.660000000     2.380000000    -2.199000000
C     3.282000000    -0.506000000    -3.216000000
C     3.688000000    -1.274000000    -2.120000000
H     3.344000000    -2.304000000    -2.136000000
C     4.478000000    -0.775000000    -1.088000000
O     4.761000000    -1.722000000    -0.095000000
C     4.102000000    -1.515000000     1.140000000
C     3.798000000    -2.850000000     1.909000000
C     3.230000000    -3.937000000     1.122000000
H     3.442000000    -3.867000000     0.058000000
C     3.564000000    -2.962000000     3.286000000
H     3.934000000    -2.169000000     3.932000000
O     4.885000000    -0.606000000     1.991000000
H     3.124000000    -1.060000000     0.923000000
C     4.861000000     0.554000000    -1.190000000
C     5.597000000     1.296000000    -0.051000000
H     5.875000000     2.295000000    -0.393000000
H     6.542000000     0.842000000     0.256000000
C     4.758000000     1.638000000     1.137000000
C     4.440000000     0.656000000     2.127000000
C     3.423000000     0.894000000     3.050000000
H     3.143000000     0.069000000     3.700000000
C     2.730000000     2.108000000     3.051000000
O     1.561000000     2.080000000     3.838000000
C     0.279000000     2.049000000     3.254000000
H     0.339000000     1.695000000     2.215000000
C    -0.727000000     1.090000000     4.081000000
C    -2.068000000     1.195000000     3.703000000
H    -2.427000000     2.015000000     3.086000000
C    -0.321000000     0.057000000     4.933000000
H     0.739000000    -0.151000000     5.061000000
C    -1.247000000    -0.826000000     5.532000000
O    -0.866000000    -1.812000000     6.367000000
C    -2.593000000    -0.587000000     5.281000000
H    -3.380000000    -1.159000000     5.766000000
C    -2.983000000     0.401000000     4.359000000
O    -4.366000000     0.517000000     4.141000000
C    -4.915000000     1.609000000     3.596000000
C    -5.748000000     1.489000000     2.500000000
H    -5.748000000     0.556000000     1.943000000
C    -4.777000000     2.824000000     4.225000000
H    -4.114000000     2.871000000     5.086000000
C    -5.460000000     3.944000000     3.756000000
H    -5.371000000     4.873000000     4.313000000
C    -6.207000000     3.892000000     2.594000000
H    -6.615000000     4.814000000     2.189000000
C    -6.281000000     2.624000000     1.921000000
O    -6.898000000     2.633000000     0.664000000
C    -6.170000000     2.380000000    -0.484000000
C    -6.507000000     1.410000000    -1.334000000
H    -7.461000000     0.892000000    -1.282000000
C    -5.680000000     1.122000000    -2.427000000
O    -6.117000000     0.183000000    -3.336000000
C    -5.497000000    -0.347000000    -4.426000000
C    -4.716000000    -1.487000000    -4.226000000
H    -4.467000000    -1.850000000    -3.232000000
C    -5.890000000    -0.050000000    -5.762000000
H    -6.652000000     0.685000000    -6.007000000
C    -5.242000000    -0.679000000    -6.826000000
H    -5.575000000    -0.431000000    -7.831000000
C    -4.401000000    -1.757000000    -6.636000000
H    -4.019000000    -2.277000000    -7.510000000
C    -4.106000000    -2.098000000    -5.337000000
O    -3.293000000    -3.146000000    -5.021000000
C    -1.895000000    -3.152000000    -4.778000000
C    -1.387000000    -4.447000000    -4.388000000
H    -2.103000000    -5.241000000    -4.194000000
C    -0.101000000    -4.493000000    -3.932000000
O     0.429000000    -5.776000000    -3.625000000
C     1.522000000    -5.965000000    -2.687000000
C     1.305000000    -5.914000000    -1.346000000
H     0.353000000    -5.513000000    -1.007000000
C     2.796000000    -6.192000000    -3.173000000
H     3.029000000    -6.121000000    -4.232000000
C     3.848000000    -6.582000000    -2.329000000
H     4.864000000    -6.666000000    -2.706000000
C     3.598000000    -6.583000000    -0.971000000
H     4.381000000    -6.773000000    -0.241000000
C     2.364000000    -6.198000000    -0.461000000
O     2.239000000    -6.149000000     0.848000000
C     2.770000000    -5.167000000     1.624000000
C     2.660000000    -5.264000000     3.009000000
H     2.183000000    -6.141000000     3.439000000
C     3.104000000    -4.193000000     3.786000000
O     2.931000000    -4.258000000     5.140000000
C     2.359000000    -3.309000000     5.978000000
C     2.974000000    -2.948000000     7.222000000
H     3.969000000    -3.350000000     7.395000000
C     2.225000000    -2.176000000     8.208000000
H     2.695000000    -1.890000000     9.146000000
C     0.934000000    -1.829000000     7.859000000
H     0.341000000    -1.158000000     8.474000000
C     0.423000000    -2.188000000     6.645000000
C     1.079000000    -3.002000000     5.680000000
H     0.617000000    -3.096000000     4.701000000
C    -2.550000000    -1.086000000    -0.648000000
H    -3.432000000    -1.266000000    -1.256000000
C    -1.654000000    -0.122000000    -0.992000000
H    -1.722000000     0.390000000    -1.948000000
C    -0.499000000     0.153000000    -0.211000000
H     0.248000000     0.961000000    -0.434000000
C    -0.230000000    -0.617000000     0.933000000
H     0.669000000    -0.494000000     1.531000000
C    -1.139000000    -1.644000000     1.169000000
H    -0.963000000    -2.249000000     2.055000000
C    -2.371000000    -1.811000000     0.516000000
C    -3.304000000    -2.887000000     0.904000000
O    -3.035000000    -3.648000000     1.823000000
O    -4.384000000    -3.079000000     0.316000000
O    -5.868000000    -2.874000000    -1.779000000
H    -6.648000000    -2.344000000    -1.618000000
H    -5.352000000    -2.792000000    -0.977000000
O    -6.666000000    -3.852000000     1.460000000
H    -6.733000000    -4.529000000     0.786000000
H    -5.797000000    -3.473000000     1.332000000
O    -1.179000000    -4.823000000     4.822000000
H    -0.815000000    -4.784000000     3.938000000
H    -2.124000000    -4.729000000     4.695000000
O    -7.262000000    -7.196000000     0.935000000
H    -6.746000000    -7.438000000     1.703000000
H    -6.719000000    -6.557000000     0.473000000
O    -5.089000000    -7.251000000     2.781000000
H    -4.967000000    -8.036000000     3.316000000
H    -5.310000000    -6.564000000     3.410000000
O    -7.730000000    -4.655000000     3.799000000
H    -7.193000000    -4.356000000     3.065000000
H    -8.325000000    -3.926000000     3.974000000
O    -3.488000000    -5.863000000     5.936000000
H    -3.109000000    -5.192000000     6.504000000
H    -4.179000000    -5.408000000     5.454000000
O    -3.086000000    -6.218000000     1.290000000
H    -3.808000000    -6.528000000     1.837000000
H    -3.160000000    -5.264000000     1.315000000
O    -8.311000000    -1.705000000    -1.589000000
H    -8.332000000    -1.870000000    -0.646000000
H    -8.982000000    -1.036000000    -1.729000000
O    -2.491000000    -5.529000000    -1.496000000
H    -2.803000000    -5.464000000    -0.593000000
H    -2.802000000    -4.726000000    -1.915000000
O    -6.506000000    -6.796000000     4.938000000
H    -7.221000000    -7.431000000     4.974000000
H    -6.903000000    -6.009000000     4.566000000
O    -0.594000000    -4.619000000     2.056000000
H    -0.517000000    -4.869000000     1.136000000
H    -1.342000000    -4.023000000     2.081000000
O    -8.136000000    -1.445000000     1.253000000
H    -8.549000000    -1.260000000     2.096000000
H    -7.776000000    -2.326000000     1.350000000
O    -7.832000000    -2.947000000    -4.086000000
H    -8.349000000    -2.316000000    -3.585000000
H    -7.077000000    -3.134000000    -3.528000000
O    -4.455000000    -3.941000000     3.919000000
H    -3.941000000    -3.769000000     3.130000000
H    -5.029000000    -3.179000000     4.002000000
O    -1.581000000    -8.497000000     1.789000000
H    -1.906000000    -7.633000000     1.533000000
H    -1.793000000    -8.567000000     2.719000000
O    -5.859000000    -5.526000000    -0.829000000
H    -5.618000000    -4.654000000    -1.142000000
H    -6.014000000    -6.032000000    -1.627000000
O    -6.496000000    -0.998000000     5.175000000
H    -6.247000000    -1.101000000     6.093000000
H    -5.909000000    -0.319000000     4.842000000
O    -3.028000000    -7.994000000    -0.651000000
H    -3.071000000    -7.577000000     0.209000000
H    -2.987000000    -7.265000000    -1.270000000
