215
-1470.90426
C    -4.052000000    -1.702000000     2.737000000
H    -3.444000000    -2.520000000     2.359000000
C    -4.528000000    -0.744000000     1.823000000
C    -5.304000000     0.309000000     2.349000000
H    -5.765000000     1.023000000     1.671000000
C    -4.262000000    -0.885000000     0.322000000
O    -4.417000000    -2.313000000    -0.061000000
H    -3.210000000    -0.565000000     0.288000000
O    -5.032000000     0.041000000    -0.443000000
C    -4.431000000     0.600000000    -1.557000000
C    -3.991000000     1.850000000    -1.354000000
H    -4.230000000     2.424000000    -0.461000000
C    -3.095000000     2.437000000    -2.230000000
O    -2.625000000     3.657000000    -1.855000000
C    -2.796000000     1.833000000    -3.480000000
C    -2.021000000     2.560000000    -4.520000000
H    -2.343000000     2.146000000    -5.478000000
C    -0.510000000     2.371000000    -4.231000000
C     0.189000000     1.280000000    -4.820000000
H    -0.271000000     0.538000000    -5.467000000
H    -2.214000000     3.635000000    -4.517000000
C    -3.317000000     0.577000000    -3.695000000
H    -3.088000000    -0.041000000    -4.559000000
C    -4.072000000    -0.112000000    -2.732000000
C    -4.458000000    -1.579000000    -2.817000000
H    -4.598000000    -1.884000000    -3.856000000
H    -5.415000000    -1.765000000    -2.326000000
C    -3.443000000    -2.449000000    -2.208000000
C    -2.391000000    -2.905000000    -3.032000000
H    -2.349000000    -2.732000000    -4.105000000
C    -3.468000000    -2.794000000    -0.827000000
C    -2.502000000    -3.624000000    -0.323000000
H    -2.440000000    -3.883000000     0.730000000
C    -1.444000000    -4.080000000    -1.171000000
O    -0.362000000    -4.664000000    -0.496000000
C     0.918000000    -4.003000000    -0.269000000
C     1.452000000    -4.408000000     1.090000000
C     2.781000000    -4.356000000     1.310000000
H     3.405000000    -4.083000000     0.462000000
C     0.562000000    -4.600000000     2.147000000
H    -0.500000000    -4.390000000     2.058000000
O     1.828000000    -4.244000000    -1.413000000
H     0.662000000    -2.934000000    -0.234000000
C    -1.376000000    -3.714000000    -2.539000000
C    -0.260000000    -4.112000000    -3.440000000
H    -0.449000000    -4.265000000    -4.504000000
H     0.001000000    -5.106000000    -3.071000000
C     0.966000000    -3.235000000    -3.410000000
C     1.118000000    -2.184000000    -4.313000000
H     0.411000000    -2.016000000    -5.121000000
C     1.929000000    -3.311000000    -2.386000000
C     3.081000000    -2.511000000    -2.287000000
H     3.880000000    -2.599000000    -1.555000000
C     3.177000000    -1.506000000    -3.244000000
O     4.167000000    -0.578000000    -3.006000000
C     3.717000000     0.549000000    -2.221000000
C     4.652000000     0.916000000    -1.125000000
C     5.555000000    -0.035000000    -0.596000000
H     5.598000000    -1.037000000    -1.014000000
C     4.551000000     2.195000000    -0.535000000
H     3.754000000     2.853000000    -0.873000000
O     3.501000000     1.629000000    -3.157000000
H     2.765000000     0.278000000    -1.740000000
C     2.223000000    -1.288000000    -4.248000000
C     2.338000000    -0.113000000    -5.179000000
H     1.797000000    -0.285000000    -6.111000000
H     3.337000000     0.185000000    -5.504000000
C     1.523000000     1.017000000    -4.430000000
C     2.210000000     1.878000000    -3.556000000
C     1.486000000     2.917000000    -2.904000000
H     1.879000000     3.549000000    -2.113000000
C     0.164000000     3.129000000    -3.278000000
O    -0.502000000     4.170000000    -2.619000000
C    -1.305000000     3.783000000    -1.487000000
H    -0.993000000     2.771000000    -1.190000000
C    -1.125000000     4.536000000    -0.188000000
C    -2.121000000     4.428000000     0.819000000
H    -3.081000000     3.961000000     0.618000000
C     0.077000000     5.160000000     0.055000000
H     0.854000000     5.128000000    -0.705000000
C     0.280000000     5.882000000     1.229000000
O     1.456000000     6.603000000     1.379000000
C    -0.735000000     5.821000000     2.206000000
H    -0.686000000     6.328000000     3.166000000
C    -1.902000000     5.147000000     1.976000000
O    -2.848000000     5.118000000     2.948000000
C    -4.179000000     4.598000000     2.967000000
C    -4.341000000     3.429000000     3.710000000
H    -3.462000000     2.990000000     4.175000000
C    -5.237000000     5.167000000     2.237000000
H    -5.208000000     6.156000000     1.786000000
C    -6.535000000     4.566000000     2.422000000
H    -7.438000000     5.015000000     2.017000000
C    -6.657000000     3.384000000     3.122000000
H    -7.635000000     2.926000000     3.249000000
C    -5.598000000     2.827000000     3.776000000
O    -5.862000000     1.610000000     4.331000000
C    -5.372000000     0.495000000     3.738000000
C    -4.869000000    -0.481000000     4.617000000
H    -4.784000000    -0.231000000     5.671000000
C    -4.248000000    -1.596000000     4.112000000
O    -3.658000000    -2.408000000     5.060000000
C    -3.091000000    -3.613000000     4.788000000
C    -1.743000000    -3.784000000     5.022000000
H    -1.143000000    -2.960000000     5.400000000
C    -3.815000000    -4.668000000     4.186000000
H    -4.897000000    -4.581000000     4.131000000
C    -3.237000000    -5.813000000     3.674000000
H    -3.873000000    -6.565000000     3.215000000
C    -1.838000000    -5.976000000     3.915000000
H    -1.248000000    -6.859000000     3.682000000
C    -1.131000000    -4.965000000     4.549000000
O     0.242000000    -5.026000000     4.556000000
C     1.091000000    -4.819000000     3.450000000
C     2.422000000    -4.855000000     3.649000000
H     2.792000000    -4.877000000     4.671000000
C     3.291000000    -4.581000000     2.623000000
O     4.636000000    -4.352000000     2.886000000
C     5.568000000    -3.954000000     1.971000000
C     5.854000000    -2.592000000     1.988000000
H     5.420000000    -2.008000000     2.796000000
C     6.097000000    -4.734000000     0.988000000
H     5.904000000    -5.798000000     0.876000000
C     7.010000000    -4.211000000     0.100000000
H     7.499000000    -4.854000000    -0.627000000
C     7.321000000    -2.870000000     0.106000000
H     8.031000000    -2.470000000    -0.614000000
C     6.720000000    -2.031000000     1.081000000
O     7.047000000    -0.677000000     1.071000000
C     6.354000000     0.331000000     0.460000000
C     6.259000000     1.591000000     1.029000000
H     6.943000000     1.821000000     1.842000000
C     5.452000000     2.588000000     0.475000000
O     5.412000000     3.889000000     1.060000000
C     4.668000000     4.960000000     0.612000000
C     5.049000000     5.579000000    -0.635000000
H     5.974000000     5.291000000    -1.128000000
C     4.200000000     6.584000000    -1.115000000
H     4.572000000     7.141000000    -1.971000000
C     2.983000000     6.976000000    -0.491000000
H     2.421000000     7.818000000    -0.888000000
C     2.664000000     6.289000000     0.658000000
C     3.457000000     5.331000000     1.221000000
H     3.218000000     4.829000000     2.155000000
C     0.287000000    -1.125000000     2.678000000
H     0.003000000    -2.071000000     3.130000000
C    -0.271000000    -0.949000000     1.403000000
H    -0.976000000    -1.664000000     0.988000000
C     0.312000000     0.035000000     0.543000000
H    -0.088000000     0.108000000    -0.463000000
C     1.302000000     0.851000000     0.993000000
H     1.705000000     1.622000000     0.341000000
C     1.716000000     0.736000000     2.319000000
H     2.397000000     1.420000000     2.819000000
C     1.266000000    -0.307000000     3.221000000
C     1.851000000    -0.542000000     4.589000000
O     2.837000000     0.176000000     4.908000000
O     1.247000000    -1.200000000     5.454000000
O     4.618000000    -2.945000000     7.817000000
H     5.029000000    -2.177000000     7.419000000
H     4.908000000    -2.926000000     8.729000000
O     4.466000000     1.862000000     8.657000000
H     5.380000000     1.665000000     8.451000000
H     3.965000000     1.216000000     8.159000000
O     1.956000000    -3.336000000     7.078000000
H     1.681000000    -2.764000000     6.362000000
H     2.891000000    -3.161000000     7.178000000
O     7.590000000    -0.157000000     4.094000000
H     6.726000000     0.035000000     4.459000000
H     8.002000000     0.700000000     3.990000000
O     3.498000000     3.993000000     7.483000000
H     2.895000000     3.446000000     6.981000000
H     4.025000000     3.371000000     7.984000000
O     6.606000000     3.218000000     4.882000000
H     7.362000000     2.862000000     4.415000000
H     6.899000000     3.293000000     5.790000000
O     2.048000000    -3.491000000     9.987000000
H     2.547000000    -2.705000000    10.211000000
H     1.720000000    -3.322000000     9.104000000
O     1.766000000    -6.737000000     6.916000000
H     1.540000000    -5.842000000     6.663000000
H     2.208000000    -6.642000000     7.760000000
O    -1.099000000     2.186000000     4.590000000
H    -0.985000000     2.121000000     3.641000000
H    -1.174000000     1.279000000     4.885000000
O     4.831000000     5.134000000     5.365000000
H     4.592000000     4.777000000     6.221000000
H     4.648000000     4.424000000     4.750000000
O    -1.133000000     0.965000000     8.295000000
H    -0.599000000     1.126000000     9.073000000
H    -1.668000000     0.206000000     8.526000000
O    -2.294000000    -1.739000000     7.773000000
H    -1.972000000    -2.637000000     7.690000000
H    -2.656000000    -1.534000000     6.911000000
O     6.458000000    -1.163000000     6.844000000
H     5.942000000    -0.459000000     6.452000000
H     6.620000000    -1.771000000     6.123000000
O    -1.196000000    -0.167000000     5.658000000
H    -0.968000000     0.297000000     6.464000000
H    -0.405000000    -0.654000000     5.430000000
O     1.856000000     2.494000000     5.694000000
H     1.892000000     1.600000000     5.354000000
H     0.935000000     2.744000000     5.614000000
O     3.086000000    -0.132000000     7.491000000
H     2.163000000    -0.288000000     7.687000000
H     3.118000000    -0.049000000     6.538000000
O    -2.197000000     3.144000000     6.924000000
H    -1.858000000     2.988000000     6.042000000
H    -1.989000000     2.344000000     7.406000000
O     5.221000000     0.814000000     5.528000000
H     5.419000000     1.696000000     5.214000000
H     4.288000000     0.698000000     5.347000000
O     3.492000000    -0.996000000    10.053000000
H     4.271000000    -1.371000000    10.464000000
H     3.832000000    -0.477000000     9.324000000
