215
-1453.19511
C    -4.564000000    -1.563000000     2.324000000
H    -4.776000000    -2.525000000     1.864000000
C    -4.335000000    -0.447000000     1.513000000
C    -3.864000000     0.741000000     2.115000000
H    -3.496000000     1.557000000     1.498000000
C    -4.141000000    -0.678000000    -0.036000000
O    -4.651000000    -1.904000000    -0.608000000
H    -3.087000000    -0.667000000    -0.350000000
O    -4.814000000     0.256000000    -0.875000000
C    -4.017000000     0.871000000    -1.862000000
C    -3.591000000     2.201000000    -1.692000000
H    -3.738000000     2.642000000    -0.709000000
C    -2.928000000     2.841000000    -2.701000000
O    -2.291000000     3.999000000    -2.307000000
C    -2.595000000     2.171000000    -3.836000000
C    -1.609000000     2.815000000    -4.821000000
H    -1.874000000     2.479000000    -5.825000000
C    -0.176000000     2.444000000    -4.441000000
C     0.414000000     1.284000000    -4.975000000
H    -0.139000000     0.617000000    -5.631000000
H    -1.732000000     3.900000000    -4.828000000
C    -3.025000000     0.905000000    -4.026000000
H    -2.773000000     0.421000000    -4.967000000
C    -3.818000000     0.291000000    -3.127000000
C    -4.437000000    -1.054000000    -3.377000000
H    -4.451000000    -1.306000000    -4.440000000
H    -5.506000000    -1.111000000    -3.161000000
C    -3.688000000    -2.220000000    -2.755000000
C    -2.568000000    -2.725000000    -3.424000000
H    -2.483000000    -2.469000000    -4.477000000
C    -3.825000000    -2.623000000    -1.417000000
C    -2.902000000    -3.571000000    -0.846000000
H    -3.171000000    -3.958000000     0.134000000
C    -1.871000000    -4.134000000    -1.558000000
O    -0.916000000    -4.825000000    -0.833000000
C     0.404000000    -4.188000000    -0.468000000
C     0.789000000    -4.343000000     1.013000000
C     2.109000000    -4.097000000     1.448000000
H     2.909000000    -3.779000000     0.784000000
C    -0.116000000    -4.805000000     1.939000000
H    -1.107000000    -5.103000000     1.609000000
O     1.479000000    -4.664000000    -1.296000000
H     0.277000000    -3.102000000    -0.588000000
C    -1.649000000    -3.707000000    -2.893000000
C    -0.438000000    -4.355000000    -3.541000000
H    -0.546000000    -4.531000000    -4.613000000
H    -0.337000000    -5.382000000    -3.186000000
C     0.823000000    -3.500000000    -3.388000000
C     0.993000000    -2.377000000    -4.198000000
H     0.281000000    -2.099000000    -4.971000000
C     1.768000000    -3.839000000    -2.396000000
C     2.881000000    -3.003000000    -2.291000000
H     3.532000000    -3.361000000    -1.497000000
C     3.059000000    -1.872000000    -3.064000000
O     3.970000000    -0.946000000    -2.586000000
C     3.490000000     0.261000000    -2.080000000
C     4.315000000     0.564000000    -0.813000000
C     5.165000000    -0.360000000    -0.314000000
H     5.189000000    -1.404000000    -0.616000000
C     4.283000000     1.811000000    -0.173000000
H     3.657000000     2.598000000    -0.587000000
O     3.624000000     1.280000000    -3.092000000
H     2.459000000     0.096000000    -1.735000000
C     2.151000000    -1.604000000    -4.055000000
C     2.312000000    -0.396000000    -4.995000000
H     1.738000000    -0.581000000    -5.905000000
H     3.364000000    -0.316000000    -5.278000000
C     1.687000000     0.879000000    -4.553000000
C     2.429000000     1.668000000    -3.686000000
C     1.900000000     2.808000000    -3.097000000
H     2.457000000     3.396000000    -2.372000000
C     0.617000000     3.201000000    -3.567000000
O     0.026000000     4.252000000    -2.929000000
C    -0.924000000     3.979000000    -1.845000000
H    -0.596000000     3.052000000    -1.352000000
C    -0.791000000     4.812000000    -0.622000000
C    -1.886000000     5.120000000     0.191000000
H    -2.855000000     4.665000000     0.002000000
C     0.465000000     5.350000000    -0.334000000
H     1.380000000     5.131000000    -0.878000000
C     0.532000000     6.322000000     0.647000000
O     1.681000000     6.901000000     0.985000000
C    -0.530000000     6.587000000     1.483000000
H    -0.558000000     7.345000000     2.261000000
C    -1.735000000     5.984000000     1.245000000
O    -2.756000000     6.314000000     2.096000000
C    -3.571000000     5.342000000     2.654000000
C    -3.173000000     4.137000000     3.141000000
H    -2.119000000     3.899000000     3.025000000
C    -4.940000000     5.605000000     2.709000000
H    -5.343000000     6.533000000     2.311000000
C    -5.822000000     4.712000000     3.349000000
H    -6.873000000     4.959000000     3.479000000
C    -5.416000000     3.528000000     3.877000000
H    -6.054000000     2.836000000     4.420000000
C    -4.075000000     3.237000000     3.659000000
O    -3.540000000     2.051000000     4.144000000
C    -3.865000000     0.849000000     3.570000000
C    -4.019000000    -0.287000000     4.390000000
H    -3.831000000    -0.143000000     5.451000000
C    -4.409000000    -1.534000000     3.767000000
O    -4.579000000    -2.627000000     4.562000000
C    -3.981000000    -3.798000000     4.311000000
C    -2.567000000    -3.937000000     4.437000000
H    -1.930000000    -3.151000000     4.835000000
C    -4.746000000    -4.921000000     3.953000000
H    -5.813000000    -4.712000000     3.937000000
C    -4.129000000    -6.144000000     3.651000000
H    -4.795000000    -6.979000000     3.443000000
C    -2.729000000    -6.260000000     3.745000000
H    -2.238000000    -7.172000000     3.415000000
C    -1.965000000    -5.186000000     4.164000000
O    -0.568000000    -5.346000000     4.323000000
C     0.270000000    -4.930000000     3.297000000
C     1.604000000    -4.747000000     3.715000000
H     1.848000000    -4.935000000     4.758000000
C     2.528000000    -4.360000000     2.770000000
O     3.822000000    -4.208000000     3.315000000
C     4.994000000    -3.877000000     2.645000000
C     5.289000000    -2.573000000     2.280000000
H     4.561000000    -1.807000000     2.534000000
C     5.865000000    -4.942000000     2.417000000
H     5.566000000    -5.872000000     2.894000000
C     7.059000000    -4.642000000     1.705000000
H     7.768000000    -5.430000000     1.466000000
C     7.421000000    -3.360000000     1.340000000
H     8.294000000    -3.068000000     0.761000000
C     6.562000000    -2.334000000     1.718000000
O     6.919000000    -1.043000000     1.306000000
C     5.991000000    -0.086000000     0.762000000
C     5.828000000     1.095000000     1.442000000
H     6.310000000     1.170000000     2.414000000
C     4.966000000     2.106000000     0.996000000
O     4.732000000     3.217000000     1.788000000
C     4.395000000     4.372000000     1.173000000
C     5.377000000     5.085000000     0.491000000
H     6.414000000     4.759000000     0.453000000
C     5.098000000     6.339000000     0.006000000
H     5.910000000     6.799000000    -0.551000000
C     3.838000000     6.921000000     0.202000000
H     3.586000000     7.878000000    -0.247000000
C     2.865000000     6.239000000     0.883000000
C     3.101000000     4.992000000     1.299000000
H     2.370000000     4.486000000     1.925000000
C     0.083000000    -1.418000000     2.502000000
H    -0.466000000    -2.081000000     3.166000000
C    -0.376000000    -1.192000000     1.220000000
H    -1.254000000    -1.684000000     0.809000000
C     0.284000000    -0.260000000     0.421000000
H    -0.134000000    -0.034000000    -0.517000000
C     1.419000000     0.387000000     0.889000000
H     1.948000000     1.191000000     0.383000000
C     1.888000000     0.057000000     2.157000000
H     2.834000000     0.452000000     2.521000000
C     1.194000000    -0.778000000     2.998000000
C     1.571000000    -0.972000000     4.436000000
O     2.572000000    -0.532000000     4.994000000
O     0.834000000    -1.627000000     5.133000000
O     3.953000000    -2.930000000     5.782000000
H     3.398000000    -2.153000000     5.848000000
H     3.644000000    -3.378000000     4.994000000
O     0.668000000    -3.645000000     6.914000000
H     0.658000000    -3.020000000     6.189000000
H     1.478000000    -3.451000000     7.386000000
O     7.734000000    -1.211000000     4.788000000
H     8.532000000    -1.246000000     4.261000000
H     7.421000000    -2.116000000     4.809000000
O    -0.569000000    -5.800000000     7.153000000
H    -0.573000000    -6.265000000     6.317000000
H    -0.086000000    -4.993000000     6.977000000
O     4.855000000     0.779000000     5.679000000
H     4.113000000     0.182000000     5.581000000
H     5.618000000     0.253000000     5.438000000
O     2.443000000     2.188000000     5.258000000
H     2.874000000     2.458000000     4.447000000
H     2.706000000     1.275000000     5.376000000
O     1.251000000     0.935000000    10.726000000
H     0.647000000     0.250000000    10.440000000
H     0.972000000     1.715000000    10.246000000
O     6.641000000    -3.723000000     5.637000000
H     5.736000000    -3.427000000     5.545000000
H     6.787000000    -3.757000000     6.582000000
O     1.363000000     4.170000000     7.042000000
H     1.851000000     3.566000000     6.483000000
H     0.997000000     4.814000000     6.436000000
O    -0.670000000     1.563000000     8.458000000
H    -1.020000000     2.323000000     8.923000000
H    -0.805000000     1.765000000     7.533000000
O     5.481000000     3.587000000     6.676000000
H     4.870000000     3.145000000     7.265000000
H     5.541000000     3.010000000     5.915000000
O    -2.229000000    -2.674000000     7.595000000
H    -2.087000000    -1.863000000     7.106000000
H    -1.471000000    -3.218000000     7.382000000
O     4.172000000     1.728000000     8.029000000
H     4.757000000     1.233000000     7.456000000
H     3.461000000     1.119000000     8.229000000
O     2.456000000    -2.517000000     8.810000000
H     2.185000000    -1.638000000     8.543000000
H     2.520000000    -2.467000000     9.764000000
O    -1.435000000    -0.652000000     6.061000000
H    -1.303000000     0.290000000     5.951000000
H    -0.611000000    -1.045000000     5.776000000
O     1.730000000    -0.028000000     7.792000000
H     1.030000000     0.476000000     8.207000000
H     1.632000000     0.150000000     6.857000000
O    -1.098000000     1.959000000     5.652000000
H    -0.456000000     2.253000000     5.006000000
H    -1.909000000     2.400000000     5.401000000
O     5.793000000    -2.512000000     8.184000000
H     5.995000000    -1.627000000     8.486000000
H     5.055000000    -2.398000000     7.585000000
O     4.048000000    -5.391000000     7.603000000
H     4.321000000    -5.094000000     8.471000000
H     3.919000000    -4.585000000     7.104000000
