215
-1461.80640
C    -4.527000000    -2.013000000     1.904000000
H    -4.276000000    -2.967000000     1.447000000
C    -4.497000000    -0.858000000     1.097000000
C    -4.788000000     0.348000000     1.684000000
H    -4.768000000     1.226000000     1.042000000
C    -4.154000000    -1.037000000    -0.398000000
O    -4.290000000    -2.379000000    -0.759000000
H    -3.097000000    -0.730000000    -0.394000000
O    -4.915000000    -0.142000000    -1.246000000
C    -4.105000000     0.422000000    -2.202000000
C    -3.585000000     1.657000000    -1.877000000
H    -3.950000000     2.132000000    -0.970000000
C    -2.724000000     2.363000000    -2.706000000
O    -2.331000000     3.561000000    -2.170000000
C    -2.343000000     1.754000000    -3.920000000
C    -1.397000000     2.482000000    -4.887000000
H    -1.409000000     1.955000000    -5.844000000
C     0.074000000     2.422000000    -4.472000000
C     0.834000000     1.356000000    -4.950000000
H     0.366000000     0.591000000    -5.564000000
H    -1.700000000     3.506000000    -5.118000000
C    -2.754000000     0.459000000    -4.232000000
H    -2.441000000    -0.068000000    -5.129000000
C    -3.691000000    -0.235000000    -3.369000000
C    -3.981000000    -1.664000000    -3.635000000
H    -3.972000000    -1.850000000    -4.711000000
H    -4.952000000    -1.872000000    -3.181000000
C    -3.091000000    -2.654000000    -2.903000000
C    -1.966000000    -3.214000000    -3.579000000
H    -1.809000000    -2.987000000    -4.630000000
C    -3.345000000    -2.996000000    -1.542000000
C    -2.423000000    -3.822000000    -0.891000000
H    -2.511000000    -3.944000000     0.185000000
C    -1.284000000    -4.286000000    -1.563000000
O    -0.360000000    -4.962000000    -0.778000000
C     0.819000000    -4.281000000    -0.257000000
C     1.023000000    -4.549000000     1.221000000
C     2.293000000    -4.247000000     1.804000000
H     3.088000000    -3.859000000     1.172000000
C    -0.022000000    -4.928000000     2.078000000
H    -0.935000000    -5.266000000     1.594000000
O     1.902000000    -4.505000000    -1.155000000
H     0.629000000    -3.201000000    -0.172000000
C    -1.059000000    -4.036000000    -2.876000000
C     0.260000000    -4.385000000    -3.556000000
H     0.248000000    -4.338000000    -4.647000000
H     0.565000000    -5.376000000    -3.214000000
C     1.396000000    -3.392000000    -3.267000000
C     1.601000000    -2.252000000    -4.071000000
H     1.028000000    -2.249000000    -4.995000000
C     2.067000000    -3.494000000    -2.020000000
C     2.994000000    -2.503000000    -1.755000000
H     3.612000000    -2.660000000    -0.874000000
C     3.254000000    -1.445000000    -2.599000000
O     4.233000000    -0.564000000    -2.151000000
C     3.853000000     0.757000000    -1.769000000
C     4.669000000     1.213000000    -0.542000000
C     4.895000000     0.335000000     0.553000000
H     4.662000000    -0.725000000     0.482000000
C     5.098000000     2.544000000    -0.379000000
H     5.000000000     3.271000000    -1.181000000
O     3.851000000     1.673000000    -2.907000000
H     2.798000000     0.601000000    -1.496000000
C     2.562000000    -1.275000000    -3.840000000
C     2.795000000    -0.217000000    -4.841000000
H     2.528000000    -0.528000000    -5.853000000
H     3.854000000     0.004000000    -4.988000000
C     2.025000000     1.008000000    -4.366000000
C     2.601000000     1.944000000    -3.468000000
C     1.893000000     3.097000000    -3.065000000
H     2.311000000     3.637000000    -2.220000000
C     0.601000000     3.294000000    -3.532000000
O    -0.132000000     4.303000000    -2.801000000
C    -0.998000000     3.741000000    -1.659000000
H    -0.612000000     2.754000000    -1.364000000
C    -0.851000000     4.643000000    -0.483000000
C    -1.956000000     4.742000000     0.404000000
H    -2.860000000     4.181000000     0.182000000
C     0.403000000     5.201000000    -0.118000000
H     1.291000000     5.060000000    -0.728000000
C     0.514000000     5.889000000     1.127000000
O     1.723000000     6.365000000     1.577000000
C    -0.620000000     5.985000000     1.926000000
H    -0.460000000     6.422000000     2.908000000
C    -1.830000000     5.395000000     1.609000000
O    -2.932000000     5.603000000     2.419000000
C    -4.039000000     4.844000000     2.490000000
C    -3.944000000     3.564000000     3.152000000
H    -3.071000000     3.064000000     3.563000000
C    -5.272000000     5.314000000     1.970000000
H    -5.378000000     6.333000000     1.609000000
C    -6.420000000     4.555000000     2.077000000
H    -7.356000000     4.935000000     1.677000000
C    -6.314000000     3.336000000     2.756000000
H    -7.211000000     2.754000000     2.950000000
C    -5.073000000     2.807000000     3.164000000
O    -5.171000000     1.572000000     3.766000000
C    -4.977000000     0.403000000     3.101000000
C    -4.928000000    -0.745000000     3.885000000
H    -4.953000000    -0.752000000     4.971000000
C    -4.694000000    -1.946000000     3.257000000
O    -4.942000000    -3.144000000     3.916000000
C    -4.217000000    -4.299000000     3.735000000
C    -2.846000000    -4.393000000     4.027000000
H    -2.209000000    -3.538000000     4.242000000
C    -4.943000000    -5.484000000     3.664000000
H    -6.019000000    -5.356000000     3.577000000
C    -4.329000000    -6.717000000     3.589000000
H    -4.936000000    -7.576000000     3.316000000
C    -2.951000000    -6.764000000     3.718000000
H    -2.344000000    -7.666000000     3.726000000
C    -2.228000000    -5.576000000     3.897000000
O    -0.856000000    -5.602000000     4.137000000
C     0.141000000    -5.052000000     3.455000000
C     1.382000000    -4.847000000     4.005000000
H     1.487000000    -5.030000000     5.072000000
C     2.475000000    -4.408000000     3.203000000
O     3.719000000    -4.132000000     3.810000000
C     4.733000000    -3.456000000     3.226000000
C     4.719000000    -2.078000000     3.385000000
H     3.859000000    -1.634000000     3.881000000
C     5.818000000    -4.111000000     2.589000000
H     5.777000000    -5.197000000     2.573000000
C     6.958000000    -3.379000000     2.180000000
H     7.887000000    -3.854000000     1.875000000
C     6.875000000    -2.008000000     2.221000000
H     7.741000000    -1.480000000     1.829000000
C     5.759000000    -1.371000000     2.714000000
O     5.650000000     0.021000000     2.771000000
C     5.463000000     0.808000000     1.729000000
C     5.822000000     2.109000000     1.857000000
H     6.186000000     2.530000000     2.791000000
C     5.670000000     2.995000000     0.787000000
O     6.069000000     4.255000000     0.854000000
C     5.071000000     5.285000000     0.609000000
C     5.345000000     6.277000000    -0.302000000
H     6.345000000     6.226000000    -0.723000000
C     4.465000000     7.346000000    -0.545000000
H     4.699000000     8.045000000    -1.344000000
C     3.226000000     7.290000000     0.088000000
H     2.459000000     8.026000000    -0.139000000
C     2.927000000     6.263000000     0.957000000
C     3.801000000     5.229000000     1.196000000
H     3.570000000     4.454000000     1.923000000
C    -0.970000000    -1.313000000     2.263000000
H    -1.711000000    -2.029000000     2.610000000
C    -0.990000000    -1.116000000     0.879000000
H    -1.570000000    -1.754000000     0.216000000
C    -0.050000000    -0.327000000     0.291000000
H    -0.066000000    -0.194000000    -0.777000000
C     0.978000000     0.241000000     1.047000000
H     1.721000000     0.856000000     0.546000000
C     0.918000000     0.146000000     2.464000000
H     1.682000000     0.657000000     3.043000000
C    -0.009000000    -0.685000000     3.122000000
C     0.070000000    -0.947000000     4.583000000
O     0.916000000    -0.297000000     5.197000000
O    -0.597000000    -1.803000000     5.145000000
O     2.636000000    -1.834000000     6.671000000
H     1.780000000    -1.844000000     7.099000000
H     2.494000000    -1.342000000     5.862000000
O    -0.255000000    -3.852000000     6.863000000
H    -0.854000000    -3.106000000     6.862000000
H     0.179000000    -3.813000000     6.010000000
O     0.198000000     4.063000000     8.161000000
H    -0.454000000     4.716000000     7.905000000
H     0.814000000     4.038000000     7.429000000
O     5.588000000    -0.527000000     6.181000000
H     6.344000000     0.020000000     5.970000000
H     5.939000000    -1.417000000     6.217000000
O     4.786000000    -0.720000000     8.851000000
H     5.314000000    -1.519000000     8.848000000
H     4.775000000    -0.436000000     7.937000000
O     1.698000000     3.639000000     5.908000000
H     2.458000000     3.075000000     6.054000000
H     1.066000000     3.078000000     5.458000000
O     0.204000000    -4.110000000     9.633000000
H     0.671000000    -4.944000000     9.575000000
H    -0.008000000    -3.891000000     8.726000000
O    -1.858000000     0.264000000    10.764000000
H    -1.424000000     0.619000000     9.989000000
H    -1.369000000     0.630000000    11.501000000
O    -0.431000000     2.087000000     5.083000000
H    -1.307000000     1.853000000     5.390000000
H     0.068000000     1.272000000     5.141000000
O    -2.981000000     1.780000000     6.319000000
H    -3.833000000     1.394000000     6.522000000
H    -3.149000000     2.721000000     6.273000000
O     3.271000000     1.297000000     5.797000000
H     3.951000000     0.655000000     6.001000000
H     2.677000000     0.836000000     5.204000000
O    -4.134000000    -2.917000000     8.417000000
H    -3.865000000    -2.336000000     7.705000000
H    -3.510000000    -2.737000000     9.121000000
O     2.054000000    -0.731000000    10.275000000
H     1.663000000    -0.471000000     9.440000000
H     2.996000000    -0.729000000    10.109000000
O    -1.415000000    -2.403000000    10.806000000
H    -1.380000000    -1.466000000    10.613000000
H    -0.772000000    -2.794000000    10.214000000
O    -3.077000000    -0.983000000     6.337000000
H    -2.938000000    -0.036000000     6.364000000
H    -2.272000000    -1.332000000     5.954000000
O     4.702000000    -3.296000000     7.461000000
H     3.980000000    -2.722000000     7.205000000
H     5.373000000    -3.148000000     6.794000000
O    -0.325000000    -1.026000000     7.838000000
H    -0.514000000    -0.161000000     8.200000000
H    -0.039000000    -0.854000000     6.941000000
O    -0.944000000     1.819000000     8.689000000
H    -0.338000000     2.551000000     8.572000000
H    -1.703000000     2.048000000     8.152000000
O    -1.011000000    -6.714000000     6.811000000
H    -1.008000000    -5.770000000     6.968000000
H    -1.049000000    -6.798000000     5.858000000
