215
-1422.67087
C    -3.703000000    -2.114000000     1.920000000
H    -3.127000000    -2.934000000     1.499000000
C    -4.114000000    -1.066000000     1.054000000
C    -4.572000000     0.162000000     1.510000000
H    -4.880000000     0.999000000     0.888000000
C    -3.937000000    -1.154000000    -0.503000000
O    -4.105000000    -2.455000000    -1.151000000
H    -2.935000000    -0.738000000    -0.684000000
O    -4.820000000    -0.190000000    -1.141000000
C    -4.163000000     0.553000000    -2.093000000
C    -3.886000000     1.865000000    -1.782000000
H    -4.288000000     2.303000000    -0.872000000
C    -3.045000000     2.622000000    -2.589000000
O    -2.521000000     3.854000000    -2.169000000
C    -2.333000000     2.011000000    -3.652000000
C    -1.348000000     2.782000000    -4.583000000
H    -1.438000000     2.425000000    -5.611000000
C     0.043000000     2.675000000    -4.101000000
C     0.900000000     1.657000000    -4.528000000
H     0.458000000     0.862000000    -5.123000000
H    -1.624000000     3.830000000    -4.721000000
C    -2.713000000     0.751000000    -4.073000000
H    -2.350000000     0.187000000    -4.928000000
C    -3.634000000     0.009000000    -3.322000000
C    -3.869000000    -1.499000000    -3.700000000
H    -3.931000000    -1.633000000    -4.782000000
H    -4.876000000    -1.782000000    -3.387000000
C    -2.895000000    -2.519000000    -3.198000000
C    -1.742000000    -2.843000000    -3.892000000
H    -1.592000000    -2.402000000    -4.874000000
C    -3.084000000    -2.987000000    -1.907000000
C    -2.197000000    -3.798000000    -1.313000000
H    -2.437000000    -4.148000000    -0.313000000
C    -1.016000000    -4.154000000    -1.966000000
O     0.000000000    -4.859000000    -1.297000000
C     1.104000000    -4.208000000    -0.661000000
C     1.363000000    -4.805000000     0.685000000
C     2.429000000    -4.358000000     1.448000000
H     3.162000000    -3.698000000     0.990000000
C     0.340000000    -5.490000000     1.369000000
H    -0.500000000    -5.863000000     0.789000000
O     2.315000000    -4.257000000    -1.439000000
H     0.849000000    -3.176000000    -0.377000000
C    -0.772000000    -3.644000000    -3.322000000
C     0.625000000    -3.803000000    -3.961000000
H     0.497000000    -3.577000000    -5.022000000
H     0.966000000    -4.839000000    -3.914000000
C     1.720000000    -2.951000000    -3.471000000
C     1.992000000    -1.749000000    -4.147000000
H     1.295000000    -1.486000000    -4.938000000
C     2.485000000    -3.158000000    -2.296000000
C     3.372000000    -2.209000000    -1.788000000
H     3.834000000    -2.272000000    -0.806000000
C     3.628000000    -1.110000000    -2.575000000
O     4.478000000    -0.205000000    -2.044000000
C     3.918000000     1.014000000    -1.473000000
C     4.571000000     1.374000000    -0.118000000
C     5.218000000     0.323000000     0.632000000
H     5.089000000    -0.701000000     0.291000000
C     4.510000000     2.642000000     0.364000000
H     4.135000000     3.447000000    -0.264000000
O     3.861000000     2.165000000    -2.398000000
H     2.872000000     0.804000000    -1.209000000
C     2.884000000    -0.822000000    -3.719000000
C     3.030000000     0.439000000    -4.653000000
H     2.743000000     0.116000000    -5.655000000
H     4.073000000     0.711000000    -4.827000000
C     2.181000000     1.575000000    -4.069000000
C     2.657000000     2.416000000    -3.064000000
C     1.817000000     3.403000000    -2.562000000
H     2.245000000     4.124000000    -1.871000000
C     0.506000000     3.471000000    -3.019000000
O    -0.233000000     4.433000000    -2.361000000
C    -1.316000000     3.870000000    -1.435000000
H    -1.054000000     2.837000000    -1.165000000
C    -1.380000000     4.660000000    -0.165000000
C    -2.609000000     4.899000000     0.459000000
H    -3.510000000     4.480000000     0.020000000
C    -0.200000000     5.081000000     0.427000000
H     0.765000000     4.743000000     0.056000000
C    -0.258000000     5.800000000     1.610000000
O     0.892000000     6.081000000     2.312000000
C    -1.463000000     5.974000000     2.285000000
H    -1.499000000     6.455000000     3.259000000
C    -2.633000000     5.586000000     1.664000000
O    -3.792000000     5.790000000     2.406000000
C    -4.751000000     4.772000000     2.351000000
C    -4.594000000     3.566000000     2.997000000
H    -3.727000000     3.442000000     3.641000000
C    -5.853000000     5.029000000     1.577000000
H    -5.999000000     6.043000000     1.214000000
C    -6.803000000     4.043000000     1.428000000
H    -7.593000000     4.286000000     0.723000000
C    -6.641000000     2.788000000     1.992000000
H    -7.287000000     1.934000000     1.806000000
C    -5.528000000     2.577000000     2.838000000
O    -5.285000000     1.443000000     3.531000000
C    -4.800000000     0.266000000     2.882000000
C    -4.452000000    -0.780000000     3.758000000
H    -4.756000000    -0.651000000     4.793000000
C    -3.842000000    -1.965000000     3.331000000
O    -3.403000000    -2.914000000     4.187000000
C    -3.185000000    -4.245000000     3.805000000
C    -1.881000000    -4.750000000     3.795000000
H    -1.037000000    -4.120000000     4.063000000
C    -4.297000000    -4.957000000     3.395000000
H    -5.249000000    -4.475000000     3.185000000
C    -4.176000000    -6.404000000     3.178000000
H    -4.987000000    -7.034000000     2.822000000
C    -2.864000000    -6.937000000     3.232000000
H    -2.755000000    -7.981000000     2.951000000
C    -1.719000000    -6.124000000     3.458000000
O    -0.474000000    -6.625000000     3.213000000
C     0.490000000    -5.896000000     2.655000000
C     1.547000000    -5.465000000     3.429000000
H     1.509000000    -5.699000000     4.490000000
C     2.535000000    -4.690000000     2.784000000
O     3.527000000    -4.063000000     3.554000000
C     4.688000000    -3.633000000     3.011000000
C     5.022000000    -2.260000000     3.056000000
H     4.295000000    -1.495000000     3.315000000
C     5.533000000    -4.516000000     2.400000000
H     5.199000000    -5.541000000     2.262000000
C     6.751000000    -4.145000000     1.949000000
H     7.339000000    -4.891000000     1.419000000
C     7.130000000    -2.789000000     2.057000000
H     8.143000000    -2.462000000     1.835000000
C     6.214000000    -1.845000000     2.525000000
O     6.546000000    -0.500000000     2.463000000
C     5.810000000     0.535000000     1.865000000
C     5.853000000     1.862000000     2.341000000
H     6.301000000     2.080000000     3.307000000
C     5.308000000     2.867000000     1.557000000
O     5.277000000     4.120000000     2.179000000
C     4.347000000     5.129000000     1.766000000
C     4.749000000     5.917000000     0.736000000
H     5.764000000     5.890000000     0.350000000
C     3.876000000     6.871000000     0.207000000
H     4.234000000     7.517000000    -0.591000000
C     2.564000000     6.926000000     0.716000000
H     1.925000000     7.665000000     0.240000000
C     2.164000000     6.100000000     1.804000000
C     3.034000000     5.154000000     2.252000000
H     2.776000000     4.444000000     3.034000000
C     0.198000000    -1.437000000     2.419000000
H     0.055000000    -2.288000000     3.080000000
C    -0.218000000    -1.359000000     1.063000000
H    -0.698000000    -2.233000000     0.632000000
C     0.008000000    -0.162000000     0.369000000
H    -0.340000000    -0.075000000    -0.679000000
C     0.683000000     0.831000000     0.956000000
H     0.993000000     1.711000000     0.399000000
C     0.953000000     0.793000000     2.292000000
H     1.403000000     1.696000000     2.696000000
C     0.765000000    -0.322000000     3.051000000
C     1.176000000    -0.378000000     4.491000000
O     1.619000000     0.607000000     4.979000000
O     1.373000000    -1.473000000     4.948000000
O     3.669000000    -1.665000000     6.368000000
H     4.481000000    -1.418000000     5.925000000
H     3.030000000    -1.759000000     5.662000000
O     0.117000000    -3.744000000     6.199000000
H    -0.088000000    -3.300000000     7.022000000
H     0.328000000    -3.036000000     5.591000000
O     5.611000000    -0.019000000     5.459000000
H     5.885000000     0.234000000     4.578000000
H     6.089000000     0.574000000     6.039000000
O     4.874000000     0.039000000     8.796000000
H     4.746000000     0.978000000     8.661000000
H     4.593000000    -0.361000000     7.973000000
O     2.123000000     4.773000000     5.908000000
H     2.876000000     4.241000000     6.167000000
H     1.525000000     4.153000000     5.491000000
O     4.810000000     2.694000000     8.501000000
H     3.879000000     2.789000000     8.702000000
H     5.137000000     3.592000000     8.450000000
O    -1.066000000    -3.700000000     8.854000000
H    -1.908000000    -3.859000000     8.428000000
H    -0.959000000    -4.437000000     9.456000000
O     0.401000000     2.953000000     5.020000000
H    -0.490000000     2.705000000     4.771000000
H     0.845000000     2.120000000     5.180000000
O    -1.852000000     1.104000000     4.964000000
H    -1.849000000     0.569000000     5.757000000
H    -2.031000000     0.484000000     4.257000000
O     3.630000000     2.586000000     5.152000000
H     4.187000000     1.829000000     5.335000000
H     2.798000000     2.208000000     4.869000000
O     0.056000000     4.170000000     8.408000000
H    -0.211000000     4.016000000     7.502000000
H    -0.323000000     3.440000000     8.896000000
O     1.713000000    -1.555000000     9.323000000
H     0.872000000    -1.433000000     8.883000000
H     2.354000000    -1.580000000     8.612000000
O    -2.114000000    -0.347000000     7.692000000
H    -2.196000000    -0.267000000     8.642000000
H    -2.652000000    -1.107000000     7.468000000
O     4.883000000    -4.370000000     6.904000000
H     4.009000000    -4.019000000     7.074000000
H     5.461000000    -3.609000000     6.955000000
O     0.675000000     0.839000000     7.711000000
H     1.085000000     0.613000000     6.877000000
H    -0.264000000     0.757000000     7.547000000
O     2.377000000     2.691000000     9.243000000
H     2.173000000     1.875000000     8.786000000
H     1.524000000     3.048000000     9.488000000
O     6.835000000    -2.410000000     7.051000000
H     6.652000000    -1.550000000     6.673000000
H     7.789000000    -2.488000000     7.019000000
O    -4.114000000    -2.128000000     7.126000000
H    -4.670000000    -1.565000000     7.665000000
H    -4.682000000    -2.411000000     6.410000000
O     1.504000000    -5.754000000     8.333000000
H     0.814000000    -5.900000000     8.980000000
H     1.201000000    -5.003000000     7.824000000
