215
-1454.19017
C    -4.785000000    -2.000000000     2.080000000
H    -4.832000000    -3.032000000     1.742000000
C    -4.558000000    -0.842000000     1.275000000
C    -4.447000000     0.396000000     1.902000000
H    -4.077000000     1.259000000     1.354000000
C    -4.246000000    -0.973000000    -0.213000000
O    -4.501000000    -2.298000000    -0.696000000
H    -3.165000000    -0.788000000    -0.293000000
O    -4.973000000    -0.020000000    -1.024000000
C    -4.254000000     0.629000000    -2.002000000
C    -3.687000000     1.899000000    -1.607000000
H    -3.924000000     2.277000000    -0.615000000
C    -2.861000000     2.508000000    -2.484000000
O    -2.391000000     3.709000000    -1.986000000
C    -2.385000000     1.932000000    -3.698000000
C    -1.483000000     2.615000000    -4.699000000
H    -1.652000000     2.420000000    -5.760000000
C    -0.045000000     2.476000000    -4.391000000
C     0.653000000     1.255000000    -4.741000000
H     0.201000000     0.513000000    -5.394000000
H    -1.599000000     3.700000000    -4.711000000
C    -2.871000000     0.659000000    -3.985000000
H    -2.452000000     0.205000000    -4.879000000
C    -3.807000000    -0.008000000    -3.189000000
C    -4.141000000    -1.475000000    -3.412000000
H    -4.165000000    -1.681000000    -4.484000000
H    -5.169000000    -1.643000000    -3.083000000
C    -3.233000000    -2.415000000    -2.673000000
C    -2.107000000    -2.890000000    -3.342000000
H    -1.836000000    -2.538000000    -4.335000000
C    -3.504000000    -2.905000000    -1.392000000
C    -2.595000000    -3.696000000    -0.710000000
H    -2.761000000    -3.974000000     0.328000000
C    -1.528000000    -4.175000000    -1.416000000
O    -0.594000000    -4.960000000    -0.736000000
C     0.610000000    -4.402000000    -0.307000000
C     1.013000000    -4.728000000     1.107000000
C     2.349000000    -4.881000000     1.503000000
H     3.223000000    -4.834000000     0.858000000
C     0.057000000    -4.687000000     2.079000000
H    -0.924000000    -4.472000000     1.665000000
O     1.716000000    -4.642000000    -1.281000000
H     0.494000000    -3.309000000    -0.351000000
C    -1.232000000    -3.781000000    -2.767000000
C    -0.094000000    -4.347000000    -3.535000000
H    -0.361000000    -4.490000000    -4.584000000
H     0.214000000    -5.365000000    -3.287000000
C     1.110000000    -3.450000000    -3.368000000
C     1.405000000    -2.362000000    -4.214000000
H     0.815000000    -2.074000000    -5.081000000
C     1.918000000    -3.690000000    -2.228000000
C     2.956000000    -2.765000000    -1.983000000
H     3.541000000    -2.928000000    -1.082000000
C     3.134000000    -1.588000000    -2.751000000
O     4.142000000    -0.717000000    -2.351000000
C     3.679000000     0.543000000    -1.822000000
C     4.404000000     0.809000000    -0.551000000
C     4.560000000    -0.104000000     0.451000000
H     4.217000000    -1.130000000     0.339000000
C     4.687000000     2.118000000    -0.264000000
H     4.623000000     2.839000000    -1.075000000
O     3.760000000     1.581000000    -2.831000000
H     2.647000000     0.396000000    -1.471000000
C     2.385000000    -1.432000000    -3.932000000
C     2.629000000    -0.247000000    -4.829000000
H     2.212000000    -0.491000000    -5.808000000
H     3.692000000    -0.110000000    -5.038000000
C     1.948000000     1.007000000    -4.313000000
C     2.547000000     1.924000000    -3.406000000
C     1.877000000     2.993000000    -2.898000000
H     2.477000000     3.587000000    -2.213000000
C     0.647000000     3.305000000    -3.435000000
O    -0.124000000     4.308000000    -2.840000000
C    -0.976000000     3.997000000    -1.667000000
H    -0.613000000     3.032000000    -1.282000000
C    -0.686000000     4.933000000    -0.507000000
C    -1.637000000     4.951000000     0.516000000
H    -2.590000000     4.451000000     0.364000000
C     0.417000000     5.790000000    -0.340000000
H     1.186000000     5.838000000    -1.107000000
C     0.617000000     6.616000000     0.837000000
O     1.770000000     7.330000000     0.926000000
C    -0.279000000     6.467000000     1.822000000
H    -0.229000000     7.006000000     2.764000000
C    -1.493000000     5.720000000     1.695000000
O    -2.363000000     5.696000000     2.747000000
C    -3.484000000     4.853000000     2.656000000
C    -3.595000000     3.697000000     3.389000000
H    -2.765000000     3.322000000     3.984000000
C    -4.552000000     5.340000000     1.889000000
H    -4.430000000     6.130000000     1.152000000
C    -5.767000000     4.566000000     1.781000000
H    -6.643000000     4.929000000     1.249000000
C    -5.858000000     3.467000000     2.538000000
H    -6.726000000     2.815000000     2.480000000
C    -4.752000000     2.993000000     3.288000000
O    -4.814000000     1.749000000     3.944000000
C    -4.749000000     0.537000000     3.233000000
C    -5.075000000    -0.553000000     3.976000000
H    -5.373000000    -0.400000000     5.010000000
C    -4.964000000    -1.834000000     3.429000000
O    -5.047000000    -2.868000000     4.372000000
C    -4.290000000    -3.983000000     4.079000000
C    -2.888000000    -3.908000000     4.322000000
H    -2.423000000    -3.041000000     4.786000000
C    -4.779000000    -5.110000000     3.479000000
H    -5.848000000    -5.276000000     3.364000000
C    -3.871000000    -6.090000000     3.131000000
H    -4.230000000    -7.024000000     2.706000000
C    -2.481000000    -6.027000000     3.300000000
H    -1.834000000    -6.849000000     3.001000000
C    -2.006000000    -4.923000000     3.952000000
O    -0.682000000    -4.841000000     4.367000000
C     0.301000000    -4.870000000     3.455000000
C     1.628000000    -5.129000000     3.822000000
H     1.808000000    -5.454000000     4.843000000
C     2.631000000    -4.986000000     2.824000000
O     3.924000000    -5.184000000     3.306000000
C     4.929000000    -4.271000000     3.091000000
C     4.642000000    -2.899000000     2.983000000
H     3.625000000    -2.519000000     3.033000000
C     6.244000000    -4.695000000     2.950000000
H     6.438000000    -5.754000000     3.100000000
C     7.265000000    -3.765000000     2.587000000
H     8.251000000    -4.105000000     2.279000000
C     6.943000000    -2.443000000     2.491000000
H     7.728000000    -1.703000000     2.360000000
C     5.643000000    -1.963000000     2.678000000
O     5.350000000    -0.615000000     2.727000000
C     5.156000000     0.287000000     1.693000000
C     5.240000000     1.587000000     2.031000000
H     5.472000000     1.881000000     3.052000000
C     4.980000000     2.532000000     1.024000000
O     5.203000000     3.851000000     1.306000000
C     4.658000000     4.986000000     0.661000000
C     5.289000000     5.599000000    -0.446000000
H     6.115000000     5.145000000    -0.986000000
C     4.757000000     6.700000000    -1.068000000
H     5.162000000     6.969000000    -2.040000000
C     3.649000000     7.325000000    -0.558000000
H     3.142000000     8.092000000    -1.139000000
C     2.992000000     6.715000000     0.520000000
C     3.474000000     5.538000000     1.089000000
H     2.955000000     5.062000000     1.917000000
C     0.818000000    -0.630000000     2.215000000
H     0.674000000    -1.397000000     2.971000000
C     0.198000000    -0.681000000     1.005000000
H    -0.254000000    -1.639000000     0.763000000
C     0.370000000     0.330000000     0.055000000
H     0.013000000     0.197000000    -0.920000000
C     1.049000000     1.540000000     0.390000000
H     1.205000000     2.389000000    -0.271000000
C     1.514000000     1.647000000     1.714000000
H     1.970000000     2.579000000     2.039000000
C     1.521000000     0.536000000     2.579000000
C     2.298000000     0.684000000     3.834000000
O     2.618000000     1.769000000     4.329000000
O     2.453000000    -0.318000000     4.436000000
O     7.093000000    -0.765000000     7.356000000
H     6.702000000     0.004000000     6.943000000
H     6.834000000    -1.497000000     6.795000000
O     4.189000000    -1.060000000     6.233000000
H     4.557000000    -0.308000000     6.697000000
H     3.668000000    -0.676000000     5.529000000
O     1.298000000    -2.180000000     5.835000000
H     1.899000000    -1.480000000     5.580000000
H     0.474000000    -1.959000000     5.400000000
O     6.510000000     0.905000000     5.011000000
H     7.375000000     1.064000000     4.633000000
H     5.937000000     0.782000000     4.254000000
O     1.337000000     6.549000000     6.943000000
H     1.615000000     5.692000000     6.619000000
H     1.810000000     7.177000000     6.397000000
O     6.835000000     3.481000000     8.137000000
H     6.083000000     2.929000000     7.920000000
H     6.567000000     4.363000000     7.879000000
O     3.268000000     6.595000000     4.896000000
H     2.685000000     5.869000000     4.674000000
H     4.116000000     6.341000000     4.532000000
O     1.760000000     4.300000000     4.544000000
H     0.922000000     3.912000000     4.796000000
H     2.310000000     3.552000000     4.311000000
O    -1.238000000     1.680000000     3.187000000
H    -1.865000000     0.957000000     3.167000000
H    -0.481000000     1.354000000     2.699000000
O     4.133000000     1.791000000     6.746000000
H     4.987000000     1.880000000     6.323000000
H     3.501000000     1.957000000     6.047000000
O     0.090000000     2.765000000     8.386000000
H    -0.027000000     2.582000000     7.454000000
H     0.767000000     3.441000000     8.414000000
O     3.749000000    -2.608000000     8.567000000
H     4.596000000    -2.759000000     8.987000000
H     3.963000000    -2.152000000     7.753000000
O     0.536000000    -0.843000000     8.617000000
H     1.338000000    -0.468000000     8.979000000
H     0.800000000    -1.206000000     7.771000000
O    -1.255000000    -0.671000000     5.976000000
H    -1.598000000     0.042000000     6.515000000
H    -1.477000000    -1.466000000     6.461000000
O     1.359000000    -3.675000000     8.274000000
H     2.156000000    -3.280000000     8.627000000
H     1.225000000    -3.235000000     7.434000000
O     2.786000000     4.125000000     9.312000000
H     3.242000000     4.232000000     8.477000000
H     3.279000000     3.442000000     9.767000000
O     0.017000000     2.374000000     5.578000000
H     0.768000000     1.866000000     5.271000000
H    -0.718000000     2.055000000     5.054000000
O     2.584000000     1.117000000     8.684000000
H     3.150000000     1.229000000     7.920000000
H     1.799000000     1.624000000     8.477000000
O     3.663000000    -4.286000000     6.056000000
H     3.272000000    -3.436000000     5.854000000
H     4.579000000    -4.087000000     6.251000000
