215
-1448.78406
C    -3.926000000    -2.156000000     1.907000000
H    -3.499000000    -3.101000000     1.581000000
C    -4.218000000    -1.028000000     1.149000000
C    -4.867000000     0.021000000     1.728000000
H    -5.043000000     0.916000000     1.136000000
C    -3.883000000    -1.107000000    -0.378000000
O    -4.157000000    -2.383000000    -0.894000000
H    -2.808000000    -0.894000000    -0.480000000
O    -4.650000000    -0.176000000    -1.188000000
C    -4.023000000     0.656000000    -2.073000000
C    -3.749000000     1.945000000    -1.656000000
H    -4.021000000     2.319000000    -0.672000000
C    -2.935000000     2.765000000    -2.470000000
O    -2.585000000     3.960000000    -2.053000000
C    -2.489000000     2.279000000    -3.666000000
C    -1.473000000     3.095000000    -4.419000000
H    -1.419000000     2.685000000    -5.430000000
C    -0.035000000     2.994000000    -3.956000000
C     0.731000000     1.940000000    -4.481000000
H     0.367000000     1.377000000    -5.337000000
H    -1.743000000     4.152000000    -4.461000000
C    -2.867000000     1.013000000    -4.094000000
H    -2.489000000     0.573000000    -5.013000000
C    -3.623000000     0.161000000    -3.371000000
C    -3.982000000    -1.220000000    -3.772000000
H    -4.196000000    -1.168000000    -4.842000000
H    -4.995000000    -1.494000000    -3.471000000
C    -2.989000000    -2.236000000    -3.145000000
C    -1.884000000    -2.648000000    -3.899000000
H    -1.790000000    -2.304000000    -4.926000000
C    -3.181000000    -2.805000000    -1.874000000
C    -2.269000000    -3.662000000    -1.345000000
H    -2.390000000    -3.971000000    -0.310000000
C    -1.151000000    -4.038000000    -2.086000000
O    -0.199000000    -4.860000000    -1.519000000
C     1.013000000    -4.190000000    -1.000000000
C     1.342000000    -4.844000000     0.332000000
C     2.663000000    -4.685000000     0.767000000
H     3.450000000    -4.361000000     0.091000000
C     0.388000000    -5.251000000     1.266000000
H    -0.642000000    -5.347000000     0.933000000
O     2.107000000    -4.254000000    -1.950000000
H     0.758000000    -3.158000000    -0.719000000
C    -0.952000000    -3.484000000    -3.358000000
C     0.274000000    -3.772000000    -4.177000000
H    -0.013000000    -3.569000000    -5.211000000
H     0.588000000    -4.818000000    -4.192000000
C     1.426000000    -2.875000000    -3.856000000
C     1.692000000    -1.674000000    -4.606000000
H     1.057000000    -1.377000000    -5.437000000
C     2.295000000    -3.200000000    -2.792000000
C     3.298000000    -2.274000000    -2.399000000
H     3.858000000    -2.530000000    -1.504000000
C     3.439000000    -1.032000000    -3.049000000
O     4.264000000    -0.151000000    -2.432000000
C     3.796000000     0.983000000    -1.733000000
C     4.475000000     1.169000000    -0.389000000
C     4.731000000     0.077000000     0.493000000
H     4.525000000    -0.956000000     0.226000000
C     4.698000000     2.434000000     0.153000000
H     4.350000000     3.308000000    -0.392000000
O     3.787000000     2.128000000    -2.516000000
H     2.743000000     0.760000000    -1.504000000
C     2.677000000    -0.756000000    -4.164000000
C     2.809000000     0.613000000    -4.813000000
H     2.590000000     0.477000000    -5.874000000
H     3.866000000     0.884000000    -4.848000000
C     2.043000000     1.743000000    -4.117000000
C     2.567000000     2.519000000    -3.128000000
C     1.809000000     3.475000000    -2.437000000
H     2.155000000     3.830000000    -1.470000000
C     0.521000000     3.718000000    -2.895000000
O    -0.320000000     4.548000000    -2.174000000
C    -1.277000000     3.940000000    -1.366000000
H    -0.946000000     2.926000000    -1.096000000
C    -1.294000000     4.561000000     0.002000000
C    -2.499000000     4.691000000     0.700000000
H    -3.497000000     4.550000000     0.293000000
C    -0.086000000     4.895000000     0.614000000
H     0.796000000     4.712000000     0.005000000
C    -0.040000000     5.420000000     1.868000000
O     1.122000000     5.744000000     2.548000000
C    -1.204000000     5.662000000     2.567000000
H    -1.106000000     6.089000000     3.561000000
C    -2.498000000     5.339000000     1.968000000
O    -3.649000000     5.612000000     2.625000000
C    -4.648000000     4.664000000     2.703000000
C    -4.481000000     3.331000000     3.072000000
H    -3.434000000     3.042000000     3.088000000
C    -5.933000000     5.200000000     2.618000000
H    -6.094000000     6.255000000     2.412000000
C    -6.988000000     4.428000000     3.033000000
H    -7.951000000     4.932000000     3.011000000
C    -6.821000000     3.089000000     3.444000000
H    -7.677000000     2.511000000     3.783000000
C    -5.546000000     2.462000000     3.401000000
O    -5.451000000     1.146000000     3.813000000
C    -5.017000000     0.062000000     3.090000000
C    -4.603000000    -1.011000000     3.862000000
H    -4.758000000    -0.961000000     4.937000000
C    -4.030000000    -2.154000000     3.266000000
O    -3.707000000    -3.178000000     4.086000000
C    -3.190000000    -4.358000000     3.676000000
C    -1.848000000    -4.580000000     3.655000000
H    -1.125000000    -3.775000000     3.761000000
C    -4.101000000    -5.374000000     3.488000000
H    -5.153000000    -5.183000000     3.685000000
C    -3.681000000    -6.674000000     3.210000000
H    -4.427000000    -7.399000000     2.895000000
C    -2.334000000    -6.934000000     3.318000000
H    -2.083000000    -7.973000000     3.120000000
C    -1.378000000    -5.897000000     3.513000000
O     0.011000000    -6.130000000     3.492000000
C     0.834000000    -5.662000000     2.573000000
C     2.175000000    -5.668000000     2.890000000
H     2.596000000    -6.294000000     3.673000000
C     3.072000000    -5.106000000     2.025000000
O     4.489000000    -5.270000000     2.106000000
C     5.318000000    -4.216000000     2.109000000
C     4.824000000    -2.929000000     2.376000000
H     3.778000000    -2.722000000     2.584000000
C     6.702000000    -4.393000000     1.864000000
H     7.005000000    -5.405000000     1.607000000
C     7.577000000    -3.307000000     1.900000000
H     8.645000000    -3.416000000     1.734000000
C     7.036000000    -2.036000000     2.263000000
H     7.734000000    -1.206000000     2.339000000
C     5.691000000    -1.888000000     2.493000000
O     5.097000000    -0.669000000     2.771000000
C     4.988000000     0.335000000     1.859000000
C     5.264000000     1.638000000     2.262000000
H     5.475000000     1.918000000     3.291000000
C     5.173000000     2.668000000     1.356000000
O     5.363000000     3.874000000     1.845000000
C     4.497000000     4.844000000     1.571000000
C     4.850000000     5.926000000     0.714000000
H     5.765000000     5.987000000     0.131000000
C     3.881000000     6.872000000     0.424000000
H     4.062000000     7.580000000    -0.380000000
C     2.650000000     6.846000000     1.048000000
H     1.932000000     7.624000000     0.803000000
C     2.307000000     5.831000000     1.879000000
C     3.195000000     4.822000000     2.085000000
H     2.959000000     4.033000000     2.794000000
C     0.739000000    -1.200000000     2.360000000
H     0.698000000    -1.992000000     3.103000000
C     0.201000000    -1.309000000     1.072000000
H    -0.326000000    -2.198000000     0.736000000
C     0.340000000    -0.316000000     0.150000000
H    -0.097000000    -0.370000000    -0.930000000
C     0.970000000     0.896000000     0.493000000
H     1.126000000     1.730000000    -0.186000000
C     1.507000000     1.042000000     1.780000000
H     1.901000000     1.994000000     2.128000000
C     1.332000000     0.002000000     2.712000000
C     1.902000000     0.123000000     4.090000000
O     2.188000000     1.154000000     4.678000000
O     2.125000000    -0.938000000     4.657000000
O     6.149000000    -1.052000000     8.420000000
H     5.229000000    -0.855000000     8.596000000
H     6.139000000    -1.504000000     7.576000000
O     4.026000000    -0.181000000     6.339000000
H     3.504000000     0.373000000     6.918000000
H     3.473000000    -0.312000000     5.569000000
O     1.019000000    -4.207000000     6.080000000
H     0.768000000    -3.567000000     5.414000000
H     1.910000000    -3.960000000     6.326000000
O     7.009000000     2.342000000     6.407000000
H     6.248000000     2.863000000     6.662000000
H     6.654000000     1.472000000     6.224000000
O     8.506000000    -0.899000000     5.063000000
H     9.244000000    -1.359000000     5.463000000
H     7.793000000    -0.995000000     5.693000000
O     2.010000000     1.522000000     8.278000000
H     2.570000000     0.902000000     8.747000000
H     1.228000000     1.598000000     8.825000000
O     4.962000000     3.726000000     7.686000000
H     4.291000000     3.840000000     7.013000000
H     4.848000000     4.478000000     8.267000000
O    -0.491000000    -4.606000000     8.325000000
H    -0.921000000    -5.454000000     8.209000000
H    -0.110000000    -4.412000000     7.468000000
O     5.116000000     5.348000000     5.072000000
H     4.517000000     4.605000000     5.148000000
H     5.552000000     5.219000000     4.230000000
O    -1.408000000     1.151000000     4.086000000
H    -1.794000000     0.597000000     4.764000000
H    -1.336000000     0.579000000     3.322000000
O     3.168000000     3.506000000     5.321000000
H     2.317000000     3.945000000     5.321000000
H     2.956000000     2.574000000     5.271000000
O    -0.822000000     3.183000000     7.804000000
H    -0.446000000     3.199000000     6.924000000
H    -0.069000000     3.275000000     8.388000000
O     3.513000000    -3.510000000     6.775000000
H     3.972000000    -4.281000000     6.442000000
H     4.199000000    -2.851000000     6.883000000
O     1.333000000    -2.528000000     8.999000000
H     0.510000000    -2.992000000     9.149000000
H     1.377000000    -2.419000000     8.049000000
O     3.450000000    -0.691000000     9.478000000
H     3.236000000    -0.266000000    10.309000000
H     2.853000000    -1.438000000     9.431000000
O    -2.083000000    -0.644000000     5.901000000
H    -1.278000000    -0.675000000     6.418000000
H    -2.663000000    -1.279000000     6.321000000
O     0.300000000     3.041000000     5.111000000
H     0.984000000     2.382000000     4.991000000
H    -0.479000000     2.652000000     4.712000000
O     0.567000000    -0.712000000     6.795000000
H     0.943000000     0.011000000     7.297000000
H     0.976000000    -0.644000000     5.933000000
O     5.791000000    -2.166000000     5.799000000
H     5.334000000    -1.325000000     5.831000000
H     5.818000000    -2.389000000     4.868000000
