215
-1443.19914
C    -4.849000000    -1.978000000     1.780000000
H    -4.975000000    -2.982000000     1.383000000
C    -4.600000000    -0.938000000     0.941000000
C    -4.320000000     0.312000000     1.420000000
H    -4.072000000     1.072000000     0.683000000
C    -4.274000000    -1.111000000    -0.591000000
O    -4.414000000    -2.512000000    -0.944000000
H    -3.221000000    -0.818000000    -0.719000000
O    -5.033000000    -0.333000000    -1.547000000
C    -4.266000000     0.302000000    -2.604000000
C    -3.845000000     1.632000000    -2.464000000
H    -4.266000000     2.225000000    -1.656000000
C    -2.827000000     2.174000000    -3.304000000
O    -2.514000000     3.462000000    -2.928000000
C    -2.173000000     1.420000000    -4.209000000
C    -1.163000000     2.127000000    -5.134000000
H    -1.146000000     1.498000000    -6.026000000
C     0.183000000     2.124000000    -4.576000000
C     1.044000000     1.007000000    -4.849000000
H     0.657000000     0.263000000    -5.540000000
H    -1.509000000     3.125000000    -5.413000000
C    -2.524000000     0.058000000    -4.290000000
H    -1.986000000    -0.526000000    -5.033000000
C    -3.552000000    -0.490000000    -3.578000000
C    -3.802000000    -2.007000000    -3.723000000
H    -3.632000000    -2.306000000    -4.759000000
H    -4.862000000    -2.223000000    -3.576000000
C    -2.937000000    -2.910000000    -2.835000000
C    -1.789000000    -3.396000000    -3.373000000
H    -1.621000000    -3.373000000    -4.447000000
C    -3.310000000    -3.121000000    -1.505000000
C    -2.322000000    -3.630000000    -0.675000000
H    -2.580000000    -3.927000000     0.338000000
C    -1.094000000    -4.058000000    -1.115000000
O    -0.142000000    -4.596000000    -0.225000000
C     0.998000000    -3.769000000     0.125000000
C     1.223000000    -3.874000000     1.638000000
C     2.487000000    -3.515000000     2.257000000
H     3.337000000    -3.109000000     1.714000000
C     0.181000000    -4.225000000     2.452000000
H    -0.763000000    -4.477000000     1.976000000
O     2.185000000    -4.277000000    -0.541000000
H     0.852000000    -2.687000000    -0.005000000
C    -0.796000000    -3.895000000    -2.501000000
C     0.537000000    -4.428000000    -3.036000000
H     0.468000000    -4.587000000    -4.114000000
H     0.848000000    -5.363000000    -2.566000000
C     1.710000000    -3.419000000    -2.781000000
C     2.037000000    -2.508000000    -3.774000000
H     1.505000000    -2.451000000    -4.720000000
C     2.588000000    -3.590000000    -1.615000000
C     3.629000000    -2.697000000    -1.422000000
H     4.244000000    -2.761000000    -0.528000000
C     3.775000000    -1.627000000    -2.340000000
O     4.656000000    -0.626000000    -1.980000000
C     3.989000000     0.592000000    -1.537000000
C     4.636000000     1.108000000    -0.216000000
C     5.371000000     0.323000000     0.661000000
H     5.425000000    -0.740000000     0.442000000
C     4.487000000     2.473000000     0.137000000
H     3.823000000     3.070000000    -0.483000000
O     3.877000000     1.629000000    -2.495000000
H     2.960000000     0.288000000    -1.292000000
C     3.002000000    -1.566000000    -3.531000000
C     3.136000000    -0.473000000    -4.563000000
H     2.801000000    -0.915000000    -5.503000000
H     4.183000000    -0.166000000    -4.621000000
C     2.281000000     0.820000000    -4.223000000
C     2.674000000     1.777000000    -3.230000000
C     1.811000000     2.856000000    -3.017000000
H     2.140000000     3.544000000    -2.242000000
C     0.645000000     3.095000000    -3.685000000
O    -0.186000000     4.152000000    -3.336000000
C    -1.180000000     3.702000000    -2.334000000
H    -0.932000000     2.709000000    -1.930000000
C    -1.356000000     4.625000000    -1.083000000
C    -2.621000000     4.947000000    -0.528000000
H    -3.549000000     4.500000000    -0.874000000
C    -0.258000000     5.173000000    -0.502000000
H     0.715000000     4.864000000    -0.875000000
C    -0.376000000     5.981000000     0.601000000
O     0.767000000     6.563000000     1.115000000
C    -1.597000000     6.352000000     1.163000000
H    -1.710000000     7.052000000     1.988000000
C    -2.764000000     5.754000000     0.566000000
O    -4.013000000     5.984000000     1.144000000
C    -4.742000000     4.946000000     1.646000000
C    -4.103000000     3.827000000     2.274000000
H    -3.034000000     3.844000000     2.469000000
C    -6.135000000     4.907000000     1.590000000
H    -6.617000000     5.813000000     1.232000000
C    -6.875000000     3.819000000     2.064000000
H    -7.957000000     3.778000000     1.969000000
C    -6.212000000     2.684000000     2.628000000
H    -6.748000000     1.847000000     3.068000000
C    -4.825000000     2.737000000     2.711000000
O    -4.150000000     1.716000000     3.391000000
C    -4.315000000     0.471000000     2.803000000
C    -4.554000000    -0.564000000     3.663000000
H    -4.598000000    -0.391000000     4.735000000
C    -4.887000000    -1.790000000     3.167000000
O    -5.084000000    -2.874000000     3.958000000
C    -4.176000000    -3.960000000     3.832000000
C    -2.844000000    -3.855000000     4.249000000
H    -2.402000000    -2.865000000     4.328000000
C    -4.718000000    -5.226000000     3.556000000
H    -5.758000000    -5.258000000     3.240000000
C    -3.943000000    -6.365000000     3.844000000
H    -4.396000000    -7.348000000     3.744000000
C    -2.588000000    -6.244000000     4.163000000
H    -1.971000000    -7.138000000     4.218000000
C    -2.052000000    -5.002000000     4.391000000
O    -0.693000000    -4.890000000     4.697000000
C     0.350000000    -4.435000000     3.898000000
C     1.626000000    -4.283000000     4.416000000
H     1.937000000    -4.432000000     5.447000000
C     2.674000000    -3.719000000     3.578000000
O     3.898000000    -3.624000000     4.154000000
C     4.999000000    -3.152000000     3.519000000
C     5.318000000    -1.811000000     3.536000000
H     4.595000000    -1.060000000     3.844000000
C     5.873000000    -4.059000000     3.011000000
H     5.686000000    -5.122000000     3.141000000
C     7.056000000    -3.674000000     2.336000000
H     7.649000000    -4.472000000     1.896000000
C     7.256000000    -2.306000000     2.162000000
H     8.144000000    -1.860000000     1.722000000
C     6.422000000    -1.404000000     2.798000000
O     6.711000000    -0.027000000     2.679000000
C     6.103000000     0.772000000     1.736000000
C     6.051000000     2.133000000     2.013000000
H     6.625000000     2.569000000     2.827000000
C     5.134000000     2.896000000     1.287000000
O     4.831000000     4.187000000     1.736000000
C     4.156000000     5.182000000     1.036000000
C     4.801000000     5.919000000     0.022000000
H     5.788000000     5.534000000    -0.222000000
C     4.005000000     6.848000000    -0.734000000
H     4.352000000     7.427000000    -1.586000000
C     2.670000000     7.152000000    -0.330000000
H     2.108000000     7.989000000    -0.737000000
C     2.105000000     6.379000000     0.708000000
C     2.876000000     5.400000000     1.397000000
H     2.465000000     4.746000000     2.162000000
C    -1.002000000    -0.461000000     2.320000000
H    -1.675000000    -1.157000000     2.814000000
C    -0.805000000    -0.683000000     0.957000000
H    -1.336000000    -1.547000000     0.564000000
C    -0.030000000     0.286000000     0.220000000
H    -0.015000000     0.152000000    -0.916000000
C     0.535000000     1.388000000     0.826000000
H     0.977000000     2.181000000     0.229000000
C     0.304000000     1.599000000     2.200000000
H     0.836000000     2.343000000     2.788000000
C    -0.466000000     0.683000000     2.955000000
C    -0.597000000     0.634000000     4.495000000
O    -0.029000000     1.475000000     5.156000000
O    -1.105000000    -0.305000000     5.119000000
O    -0.510000000    -2.458000000     6.534000000
H    -0.296000000    -3.266000000     6.068000000
H    -0.698000000    -1.825000000     5.841000000
O     5.325000000     3.248000000     5.201000000
H     4.437000000     3.082000000     4.885000000
H     5.394000000     4.202000000     5.233000000
O    -3.106000000    -0.132000000     6.732000000
H    -2.737000000     0.263000000     7.522000000
H    -2.370000000    -0.183000000     6.123000000
O    -1.582000000    -3.151000000     8.822000000
H    -1.189000000    -2.809000000     8.019000000
H    -1.121000000    -3.975000000     8.982000000
O     2.145000000     3.441000000     4.868000000
H     1.485000000     4.099000000     4.650000000
H     1.650000000     2.733000000     5.280000000
O     0.723000000     5.963000000     3.866000000
H     1.625000000     6.160000000     4.117000000
H     0.714000000     6.054000000     2.913000000
O    -1.854000000     6.146000000     5.193000000
H    -2.187000000     5.485000000     5.801000000
H    -1.027000000     5.783000000     4.875000000
O     0.705000000     1.635000000     9.756000000
H     0.560000000     1.008000000     9.048000000
H     0.373000000     1.194000000    10.538000000
O     0.265000000     0.065000000     7.706000000
H    -0.088000000     0.409000000     6.885000000
H     0.183000000    -0.885000000     7.622000000
O     5.423000000     0.803000000     6.377000000
H     4.501000000     0.571000000     6.265000000
H     5.490000000     1.692000000     6.027000000
O     2.508000000    -0.463000000    10.232000000
H     2.157000000     0.407000000    10.043000000
H     1.777000000    -0.935000000    10.631000000
O    -5.045000000    -2.005000000     7.156000000
H    -4.347000000    -1.370000000     6.995000000
H    -5.501000000    -2.077000000     6.317000000
O    -2.549000000     0.952000000     9.012000000
H    -2.630000000     1.811000000     9.425000000
H    -2.235000000     0.378000000     9.711000000
O    -0.482000000     3.128000000     7.340000000
H    -0.266000000     2.607000000     8.113000000
H    -0.523000000     2.491000000     6.626000000
O     1.427000000     5.029000000     8.288000000
H     0.833000000     4.415000000     7.856000000
H     1.222000000     5.877000000     7.895000000
O    -4.351000000     2.683000000     6.553000000
H    -3.854000000     1.938000000     6.891000000
H    -4.461000000     2.495000000     5.621000000
O     2.597000000     0.192000000     5.655000000
H     1.905000000     0.006000000     6.291000000
H     2.246000000     0.904000000     5.121000000
O    -2.420000000     4.944000000     7.548000000
H    -3.153000000     4.329000000     7.535000000
H    -1.644000000     4.389000000     7.626000000
O    -4.866000000     5.673000000     4.919000000
H    -3.991000000     5.903000000     4.606000000
H    -5.446000000     6.305000000     4.494000000
