215
-1448.93870
C    -4.233000000    -1.303000000     1.653000000
H    -3.579000000    -2.154000000     1.485000000
C    -4.377000000    -0.418000000     0.578000000
C    -4.926000000     0.819000000     0.789000000
H    -5.037000000     1.459000000    -0.082000000
C    -3.882000000    -0.836000000    -0.767000000
O    -4.118000000    -2.206000000    -1.033000000
H    -2.796000000    -0.675000000    -0.689000000
O    -4.390000000    -0.076000000    -1.834000000
C    -3.488000000     0.313000000    -2.813000000
C    -3.215000000     1.679000000    -2.859000000
H    -3.728000000     2.368000000    -2.192000000
C    -2.167000000     2.152000000    -3.648000000
O    -1.749000000     3.453000000    -3.529000000
C    -1.484000000     1.281000000    -4.526000000
C    -0.357000000     1.756000000    -5.420000000
H    -0.233000000     1.184000000    -6.342000000
C     0.951000000     1.668000000    -4.640000000
C     1.648000000     0.497000000    -4.662000000
H     1.393000000    -0.289000000    -5.368000000
H    -0.597000000     2.748000000    -5.808000000
C    -1.948000000    -0.062000000    -4.602000000
H    -1.543000000    -0.735000000    -5.354000000
C    -2.907000000    -0.500000000    -3.761000000
C    -3.330000000    -1.941000000    -3.834000000
H    -3.138000000    -2.376000000    -4.817000000
H    -4.405000000    -2.097000000    -3.722000000
C    -2.544000000    -2.815000000    -2.856000000
C    -1.407000000    -3.514000000    -3.188000000
H    -0.934000000    -3.370000000    -4.156000000
C    -3.129000000    -2.983000000    -1.585000000
C    -2.413000000    -3.752000000    -0.651000000
H    -2.724000000    -3.811000000     0.389000000
C    -1.182000000    -4.310000000    -0.901000000
O    -0.417000000    -4.910000000     0.108000000
C     0.780000000    -4.366000000     0.656000000
C     0.846000000    -4.597000000     2.125000000
C     2.009000000    -4.613000000     2.816000000
H     2.917000000    -4.386000000     2.263000000
C    -0.331000000    -4.849000000     2.857000000
H    -1.230000000    -5.003000000     2.265000000
O     1.955000000    -4.885000000    -0.023000000
H     0.820000000    -3.267000000     0.625000000
C    -0.712000000    -4.224000000    -2.224000000
C     0.624000000    -4.881000000    -2.597000000
H     0.715000000    -5.059000000    -3.671000000
H     0.602000000    -5.921000000    -2.264000000
C     1.757000000    -4.025000000    -2.177000000
C     2.078000000    -2.975000000    -3.079000000
H     1.572000000    -2.898000000    -4.038000000
C     2.352000000    -4.058000000    -0.964000000
C     3.334000000    -3.083000000    -0.602000000
H     3.849000000    -3.222000000     0.346000000
C     3.705000000    -2.120000000    -1.536000000
O     4.611000000    -1.106000000    -1.196000000
C     3.886000000     0.142000000    -0.989000000
C     4.132000000     0.768000000     0.362000000
C     4.176000000    -0.029000000     1.483000000
H     3.963000000    -1.094000000     1.490000000
C     4.398000000     2.168000000     0.497000000
H     4.289000000     2.765000000    -0.405000000
O     4.143000000     1.035000000    -2.066000000
H     2.809000000    -0.081000000    -1.009000000
C     3.092000000    -2.068000000    -2.850000000
C     3.504000000    -1.081000000    -3.937000000
H     3.491000000    -1.570000000    -4.913000000
H     4.574000000    -0.911000000    -3.799000000
C     2.761000000     0.261000000    -3.852000000
C     3.198000000     1.295000000    -3.032000000
C     2.469000000     2.523000000    -2.952000000
H     2.636000000     3.245000000    -2.157000000
C     1.429000000     2.696000000    -3.775000000
O     0.619000000     3.800000000    -3.491000000
C    -0.579000000     3.649000000    -2.763000000
H    -0.453000000     2.720000000    -2.187000000
C    -0.755000000     4.759000000    -1.663000000
C    -1.942000000     4.972000000    -1.040000000
H    -2.836000000     4.489000000    -1.424000000
C     0.358000000     5.423000000    -1.310000000
H     1.343000000     5.343000000    -1.763000000
C     0.294000000     6.396000000    -0.304000000
O     1.432000000     7.014000000     0.152000000
C    -0.891000000     6.542000000     0.385000000
H    -0.833000000     7.230000000     1.224000000
C    -2.022000000     5.882000000    -0.005000000
O    -3.127000000     6.106000000     0.696000000
C    -4.328000000     5.419000000     0.737000000
C    -4.429000000     4.208000000     1.461000000
H    -3.607000000     3.800000000     2.043000000
C    -5.412000000     6.002000000     0.040000000
H    -5.346000000     6.988000000    -0.413000000
C    -6.657000000     5.344000000    -0.027000000
H    -7.489000000     5.737000000    -0.607000000
C    -6.728000000     4.134000000     0.680000000
H    -7.688000000     3.637000000     0.568000000
C    -5.692000000     3.596000000     1.425000000
O    -5.936000000     2.478000000     2.217000000
C    -5.345000000     1.235000000     2.038000000
C    -5.234000000     0.336000000     3.121000000
H    -5.639000000     0.453000000     4.124000000
C    -4.741000000    -0.974000000     2.904000000
O    -4.606000000    -1.807000000     3.975000000
C    -4.263000000    -3.101000000     3.900000000
C    -3.070000000    -3.450000000     4.471000000
H    -2.512000000    -2.655000000     4.959000000
C    -5.096000000    -4.084000000     3.341000000
H    -6.055000000    -3.812000000     2.908000000
C    -4.745000000    -5.443000000     3.343000000
H    -5.389000000    -6.280000000     3.087000000
C    -3.507000000    -5.745000000     3.881000000
H    -3.213000000    -6.791000000     3.930000000
C    -2.672000000    -4.762000000     4.455000000
O    -1.499000000    -5.133000000     4.952000000
C    -0.317000000    -4.929000000     4.268000000
C     0.923000000    -4.917000000     4.962000000
H     1.016000000    -5.036000000     6.038000000
C     2.094000000    -4.813000000     4.175000000
O     3.261000000    -4.653000000     4.859000000
C     4.196000000    -3.806000000     4.364000000
C     3.936000000    -2.419000000     4.407000000
H     2.926000000    -2.080000000     4.624000000
C     5.494000000    -4.241000000     3.993000000
H     5.655000000    -5.303000000     4.161000000
C     6.417000000    -3.347000000     3.519000000
H     7.391000000    -3.642000000     3.137000000
C     6.014000000    -2.017000000     3.358000000
H     6.762000000    -1.318000000     2.994000000
C     4.857000000    -1.560000000     3.952000000
O     4.586000000    -0.181000000     3.934000000
C     4.516000000     0.573000000     2.727000000
C     4.723000000     1.898000000     2.852000000
H     5.012000000     2.333000000     3.805000000
C     4.686000000     2.723000000     1.720000000
O     5.002000000     4.103000000     1.774000000
C     4.461000000     5.024000000     0.941000000
C     5.357000000     5.679000000     0.093000000
H     6.370000000     5.284000000     0.092000000
C     5.009000000     6.689000000    -0.769000000
H     5.674000000     7.244000000    -1.426000000
C     3.712000000     7.104000000    -0.831000000
H     3.463000000     7.909000000    -1.518000000
C     2.739000000     6.479000000     0.010000000
C     3.159000000     5.562000000     1.017000000
H     2.378000000     5.235000000     1.699000000
C    -0.391000000    -0.077000000     2.260000000
H    -0.820000000    -0.633000000     3.090000000
C    -0.338000000    -0.623000000     0.925000000
H    -0.747000000    -1.609000000     0.718000000
C     0.091000000     0.129000000    -0.158000000
H    -0.040000000    -0.256000000    -1.156000000
C     0.670000000     1.331000000     0.010000000
H     1.143000000     1.812000000    -0.843000000
C     0.617000000     1.913000000     1.287000000
H     1.077000000     2.863000000     1.546000000
C     0.095000000     1.253000000     2.409000000
C     0.146000000     1.931000000     3.743000000
O     0.667000000     3.032000000     3.934000000
O    -0.336000000     1.303000000     4.709000000
O    -1.844000000     0.158000000     6.566000000
H    -1.371000000    -0.507000000     7.065000000
H    -1.284000000     0.336000000     5.811000000
O     3.889000000     2.594000000     7.931000000
H     4.384000000     1.896000000     8.361000000
H     3.228000000     2.134000000     7.413000000
O     4.106000000     6.709000000     6.141000000
H     3.317000000     6.774000000     5.603000000
H     3.866000000     6.108000000     6.847000000
O    -3.115000000     2.611000000     4.934000000
H    -2.448000000     2.112000000     5.405000000
H    -3.126000000     2.228000000     4.057000000
O    -1.309000000     7.880000000     4.654000000
H    -0.706000000     7.176000000     4.893000000
H    -2.141000000     7.437000000     4.487000000
O    -2.442000000     0.137000000     9.712000000
H    -1.960000000     0.158000000     8.885000000
H    -1.827000000     0.486000000    10.356000000
O     0.343000000     5.566000000     3.603000000
H    -0.595000000     5.688000000     3.455000000
H     0.444000000     4.624000000     3.739000000
O     2.326000000     7.301000000     4.077000000
H     1.610000000     6.726000000     3.809000000
H     1.915000000     7.943000000     4.656000000
O    -2.231000000     4.982000000     3.789000000
H    -2.161000000     4.326000000     4.482000000
H    -3.097000000     5.370000000     3.912000000
O     0.006000000     1.951000000     8.954000000
H     0.464000000     1.112000000     8.995000000
H     0.474000000     2.511000000     9.574000000
O     0.979000000    -0.385000000     9.364000000
H     0.191000000    -0.855000000     9.090000000
H     0.870000000    -0.264000000    10.307000000
O     1.497000000     0.866000000     6.669000000
H     0.948000000     0.547000000     7.385000000
H     0.899000000     0.946000000     5.925000000
O     0.306000000     6.353000000     6.872000000
H    -0.173000000     5.525000000     6.844000000
H    -0.228000000     6.920000000     7.427000000
O    -5.333000000    -0.389000000     6.811000000
H    -4.658000000    -0.236000000     6.149000000
H    -5.829000000    -1.137000000     6.479000000
O    -0.680000000     3.642000000     6.695000000
H    -0.371000000     3.081000000     7.406000000
H    -0.303000000     3.257000000     5.904000000
O    -5.513000000     2.682000000     6.356000000
H    -5.205000000     2.101000000     7.051000000
H    -4.727000000     2.885000000     5.849000000
O     5.917000000     5.718000000     4.162000000
H     5.270000000     5.211000000     3.671000000
H     5.496000000     5.891000000     5.004000000
O     3.271000000     4.240000000     4.349000000
H     2.651000000     4.967000000     4.399000000
H     2.775000000     3.480000000     4.651000000
O    -3.110000000     5.312000000     7.804000000
H    -3.431000000     4.727000000     8.491000000
H    -2.317000000     4.886000000     7.478000000
