215
-1458.56180
C    -4.221000000    -2.339000000     1.860000000
H    -4.039000000    -3.343000000     1.485000000
C    -4.221000000    -1.203000000     1.052000000
C    -4.257000000     0.035000000     1.670000000
H    -4.226000000     0.918000000     1.036000000
C    -3.853000000    -1.324000000    -0.461000000
O    -4.162000000    -2.601000000    -1.053000000
H    -2.806000000    -1.007000000    -0.576000000
O    -4.639000000    -0.343000000    -1.192000000
C    -3.968000000     0.324000000    -2.181000000
C    -3.560000000     1.583000000    -1.839000000
H    -4.033000000     2.058000000    -0.984000000
C    -2.681000000     2.233000000    -2.603000000
O    -2.295000000     3.486000000    -2.151000000
C    -2.176000000     1.713000000    -3.805000000
C    -1.222000000     2.493000000    -4.685000000
H    -1.273000000     2.104000000    -5.704000000
C     0.209000000     2.391000000    -4.302000000
C     0.995000000     1.327000000    -4.777000000
H     0.640000000     0.638000000    -5.538000000
H    -1.593000000     3.520000000    -4.702000000
C    -2.497000000     0.344000000    -4.058000000
H    -1.918000000    -0.226000000    -4.781000000
C    -3.519000000    -0.299000000    -3.338000000
C    -3.813000000    -1.712000000    -3.721000000
H    -3.740000000    -1.858000000    -4.801000000
H    -4.828000000    -2.045000000    -3.496000000
C    -2.855000000    -2.742000000    -3.056000000
C    -1.732000000    -3.178000000    -3.740000000
H    -1.456000000    -2.733000000    -4.693000000
C    -3.131000000    -3.192000000    -1.779000000
C    -2.307000000    -4.051000000    -1.128000000
H    -2.437000000    -4.123000000    -0.051000000
C    -1.142000000    -4.424000000    -1.744000000
O    -0.215000000    -5.193000000    -1.065000000
C     0.803000000    -4.465000000    -0.369000000
C     0.957000000    -4.732000000     1.128000000
C     1.888000000    -4.001000000     1.837000000
H     2.646000000    -3.388000000     1.355000000
C     0.023000000    -5.511000000     1.754000000
H    -0.615000000    -6.196000000     1.201000000
O     2.098000000    -4.581000000    -1.070000000
H     0.438000000    -3.429000000    -0.319000000
C    -0.845000000    -4.005000000    -3.020000000
C     0.588000000    -4.300000000    -3.509000000
H     0.609000000    -4.184000000    -4.595000000
H     0.856000000    -5.348000000    -3.364000000
C     1.698000000    -3.322000000    -3.039000000
C     1.989000000    -2.223000000    -3.905000000
H     1.347000000    -2.088000000    -4.771000000
C     2.414000000    -3.450000000    -1.865000000
C     3.383000000    -2.509000000    -1.520000000
H     3.917000000    -2.624000000    -0.580000000
C     3.646000000    -1.390000000    -2.357000000
O     4.431000000    -0.378000000    -1.826000000
C     3.903000000     0.916000000    -1.506000000
C     4.616000000     1.474000000    -0.250000000
C     4.829000000     0.546000000     0.779000000
H     4.583000000    -0.507000000     0.668000000
C     4.985000000     2.766000000    -0.119000000
H     4.903000000     3.483000000    -0.932000000
O     3.963000000     1.823000000    -2.630000000
H     2.830000000     0.892000000    -1.266000000
C     2.958000000    -1.272000000    -3.544000000
C     3.155000000    -0.116000000    -4.565000000
H     2.839000000    -0.414000000    -5.567000000
H     4.207000000     0.037000000    -4.813000000
C     2.335000000     1.163000000    -4.244000000
C     2.822000000     2.062000000    -3.300000000
C     2.052000000     3.138000000    -2.928000000
H     2.462000000     3.866000000    -2.233000000
C     0.755000000     3.331000000    -3.471000000
O     0.022000000     4.305000000    -2.833000000
C    -0.882000000     3.776000000    -1.754000000
H    -0.449000000     2.866000000    -1.312000000
C    -0.865000000     4.700000000    -0.611000000
C    -2.023000000     4.779000000     0.257000000
H    -2.818000000     4.038000000     0.227000000
C     0.269000000     5.434000000    -0.312000000
H     1.105000000     5.391000000    -1.005000000
C     0.238000000     6.293000000     0.772000000
O     1.325000000     7.180000000     1.013000000
C    -0.904000000     6.411000000     1.544000000
H    -0.882000000     7.139000000     2.352000000
C    -2.012000000     5.656000000     1.361000000
O    -3.102000000     5.723000000     2.221000000
C    -4.076000000     4.747000000     2.326000000
C    -3.749000000     3.489000000     2.753000000
H    -2.708000000     3.292000000     2.996000000
C    -5.387000000     5.047000000     1.924000000
H    -5.605000000     6.081000000     1.669000000
C    -6.366000000     4.070000000     2.040000000
H    -7.402000000     4.317000000     1.825000000
C    -6.025000000     2.871000000     2.662000000
H    -6.880000000     2.252000000     2.917000000
C    -4.732000000     2.543000000     2.982000000
O    -4.454000000     1.395000000     3.680000000
C    -4.448000000     0.120000000     3.093000000
C    -4.644000000    -1.032000000     3.884000000
H    -4.748000000    -0.953000000     4.963000000
C    -4.444000000    -2.289000000     3.288000000
O    -4.608000000    -3.311000000     4.181000000
C    -4.163000000    -4.543000000     3.816000000
C    -2.800000000    -4.815000000     4.051000000
H    -2.223000000    -3.928000000     4.297000000
C    -5.014000000    -5.624000000     3.498000000
H    -6.080000000    -5.541000000     3.304000000
C    -4.458000000    -6.871000000     3.274000000
H    -5.056000000    -7.752000000     3.050000000
C    -3.057000000    -7.142000000     3.355000000
H    -2.744000000    -8.182000000     3.397000000
C    -2.263000000    -6.088000000     3.753000000
O    -0.915000000    -6.318000000     3.814000000
C     0.044000000    -5.643000000     3.147000000
C     1.058000000    -5.038000000     3.865000000
H     1.120000000    -5.322000000     4.912000000
C     1.976000000    -4.260000000     3.244000000
O     3.009000000    -3.758000000     4.036000000
C     4.110000000    -3.158000000     3.502000000
C     4.221000000    -1.802000000     3.607000000
H     3.421000000    -1.240000000     4.082000000
C     5.024000000    -3.916000000     2.706000000
H     4.785000000    -4.943000000     2.439000000
C     6.154000000    -3.256000000     2.225000000
H     6.915000000    -3.823000000     1.695000000
C     6.293000000    -1.823000000     2.441000000
H     7.109000000    -1.310000000     1.939000000
C     5.311000000    -1.140000000     3.066000000
O     5.282000000     0.239000000     3.166000000
C     5.217000000     1.102000000     2.018000000
C     5.322000000     2.447000000     2.274000000
H     5.329000000     2.857000000     3.281000000
C     5.331000000     3.254000000     1.136000000
O     5.431000000     4.602000000     1.362000000
C     4.590000000     5.604000000     0.851000000
C     5.153000000     6.343000000    -0.204000000
H     6.144000000     5.966000000    -0.443000000
C     4.525000000     7.562000000    -0.695000000
H     5.027000000     8.011000000    -1.549000000
C     3.263000000     7.850000000    -0.303000000
H     2.651000000     8.666000000    -0.678000000
C     2.619000000     6.972000000     0.629000000
C     3.279000000     5.884000000     1.190000000
H     2.850000000     5.258000000     1.968000000
C    -1.012000000    -1.225000000     2.724000000
H    -1.398000000    -1.978000000     3.406000000
C    -0.861000000    -1.519000000     1.351000000
H    -1.077000000    -2.510000000     0.960000000
C    -0.414000000    -0.493000000     0.490000000
H    -0.487000000    -0.725000000    -0.588000000
C    -0.068000000     0.785000000     1.056000000
H     0.333000000     1.546000000     0.391000000
C    -0.282000000     1.041000000     2.426000000
H    -0.030000000     1.998000000     2.873000000
C    -0.869000000     0.056000000     3.217000000
C    -1.136000000     0.332000000     4.684000000
O    -0.902000000     1.411000000     5.248000000
O    -1.467000000    -0.605000000     5.424000000
O    -2.480000000    -5.022000000     8.062000000
H    -3.250000000    -5.578000000     8.179000000
H    -2.836000000    -4.165000000     7.830000000
O     2.906000000     4.045000000     6.970000000
H     2.604000000     3.411000000     6.320000000
H     2.739000000     3.623000000     7.812000000
O     0.131000000    -2.726000000     5.893000000
H     1.021000000    -2.660000000     5.547000000
H    -0.321000000    -1.960000000     5.539000000
O    -3.162000000    -2.519000000     6.805000000
H    -2.883000000    -2.063000000     7.599000000
H    -2.521000000    -2.262000000     6.143000000
O    -0.030000000    -5.160000000     6.990000000
H     0.071000000    -4.278000000     6.633000000
H    -0.918000000    -5.173000000     7.348000000
O     1.519000000     2.276000000     5.395000000
H     1.341000000     3.127000000     4.994000000
H     0.665000000     1.845000000     5.429000000
O     0.675000000     4.711000000     4.774000000
H    -0.098000000     4.528000000     5.309000000
H     0.514000000     5.583000000     4.412000000
O    -1.175000000     3.689000000     6.490000000
H    -0.676000000     3.680000000     7.307000000
H    -1.192000000     2.773000000     6.210000000
O     0.214000000    -3.387000000     9.502000000
H     0.135000000    -4.278000000     9.844000000
H    -0.671000000    -3.161000000     9.217000000
O     2.513000000    -2.854000000     7.646000000
H     1.624000000    -2.885000000     7.998000000
H     2.468000000    -2.213000000     6.937000000
O    -3.887000000     4.626000000     6.832000000
H    -2.997000000     4.330000000     6.639000000
H    -3.781000000     5.257000000     7.543000000
O     5.088000000     0.036000000     6.592000000
H     4.140000000    -0.009000000     6.713000000
H     5.247000000     0.922000000     6.266000000
O    -5.872000000     1.189000000     6.667000000
H    -4.925000000     1.114000000     6.785000000
H    -5.997000000     2.050000000     6.267000000
O    -5.397000000    -3.934000000     6.747000000
H    -4.618000000    -3.390000000     6.634000000
H    -6.078000000    -3.484000000     6.247000000
O    -2.321000000    -1.829000000     9.218000000
H    -2.939000000    -1.105000000     9.323000000
H    -2.288000000    -2.243000000    10.080000000
O    -0.164000000     0.034000000     7.813000000
H    -0.739000000    -0.606000000     8.232000000
H    -0.389000000    -0.012000000     6.884000000
O     0.452000000     2.871000000     8.714000000
H     0.440000000     1.914000000     8.743000000
H     1.158000000     3.120000000     9.311000000
O    -2.930000000     1.133000000     7.270000000
H    -2.408000000     0.834000000     6.526000000
H    -2.307000000     1.598000000     7.828000000
O     2.301000000    -0.144000000     6.477000000
H     2.227000000     0.610000000     5.893000000
H     1.701000000     0.050000000     7.197000000
