215
-1438.80594
C    -4.679000000    -1.749000000     1.497000000
H    -3.981000000    -2.576000000     1.596000000
C    -4.699000000    -1.071000000     0.201000000
C    -5.400000000     0.128000000     0.136000000
H    -5.306000000     0.761000000    -0.743000000
C    -3.762000000    -1.493000000    -0.875000000
O    -3.731000000    -2.950000000    -0.860000000
H    -2.748000000    -1.089000000    -0.736000000
O    -4.218000000    -1.186000000    -2.168000000
C    -3.360000000    -0.606000000    -3.023000000
C    -3.077000000     0.805000000    -3.058000000
H    -3.585000000     1.451000000    -2.347000000
C    -2.140000000     1.298000000    -3.969000000
O    -1.779000000     2.599000000    -3.756000000
C    -1.314000000     0.389000000    -4.626000000
C    -0.205000000     0.928000000    -5.502000000
H    -0.069000000     0.353000000    -6.420000000
C     1.108000000     1.100000000    -4.684000000
C     1.993000000     0.059000000    -4.695000000
H     1.715000000    -0.892000000    -5.144000000
H    -0.512000000     1.843000000    -6.012000000
C    -1.515000000    -0.973000000    -4.580000000
H    -0.800000000    -1.640000000    -5.054000000
C    -2.612000000    -1.461000000    -3.865000000
C    -2.817000000    -2.982000000    -3.765000000
H    -2.519000000    -3.455000000    -4.703000000
H    -3.850000000    -3.296000000    -3.599000000
C    -2.052000000    -3.557000000    -2.643000000
C    -0.783000000    -4.084000000    -2.894000000
H    -0.323000000    -4.029000000    -3.878000000
C    -2.624000000    -3.650000000    -1.343000000
C    -1.968000000    -4.204000000    -0.260000000
H    -2.340000000    -4.139000000     0.759000000
C    -0.660000000    -4.660000000    -0.528000000
O     0.051000000    -5.062000000     0.588000000
C     1.062000000    -4.195000000     1.023000000
C     0.987000000    -4.159000000     2.590000000
C     2.120000000    -3.875000000     3.350000000
H     3.042000000    -3.532000000     2.886000000
C    -0.230000000    -4.055000000     3.263000000
H    -1.072000000    -4.206000000     2.592000000
O     2.389000000    -4.508000000     0.604000000
H     0.839000000    -3.131000000     0.852000000
C    -0.099000000    -4.596000000    -1.835000000
C     1.326000000    -5.091000000    -2.189000000
H     1.417000000    -5.416000000    -3.227000000
H     1.667000000    -5.920000000    -1.565000000
C     2.261000000    -3.973000000    -1.792000000
C     2.620000000    -3.036000000    -2.788000000
H     2.186000000    -3.089000000    -3.783000000
C     2.798000000    -3.804000000    -0.477000000
C     3.517000000    -2.630000000    -0.224000000
H     3.815000000    -2.581000000     0.820000000
C     4.007000000    -1.779000000    -1.228000000
O     4.764000000    -0.693000000    -0.868000000
C     4.064000000     0.576000000    -0.844000000
C     4.347000000     1.447000000     0.341000000
C     4.444000000     0.807000000     1.609000000
H     4.389000000    -0.278000000     1.657000000
C     4.323000000     2.832000000     0.293000000
H     4.174000000     3.385000000    -0.631000000
O     4.303000000     1.335000000    -2.079000000
H     2.995000000     0.319000000    -0.805000000
C     3.524000000    -1.983000000    -2.504000000
C     4.017000000    -1.123000000    -3.683000000
H     4.047000000    -1.754000000    -4.575000000
H     5.040000000    -0.761000000    -3.563000000
C     3.138000000     0.163000000    -3.894000000
C     3.421000000     1.353000000    -3.140000000
C     2.625000000     2.480000000    -3.263000000
H     2.797000000     3.447000000    -2.798000000
C     1.404000000     2.309000000    -3.998000000
O     0.494000000     3.277000000    -3.848000000
C    -0.601000000     3.019000000    -2.993000000
H    -0.339000000     2.153000000    -2.368000000
C    -0.966000000     4.177000000    -2.055000000
C    -2.098000000     4.158000000    -1.225000000
H    -2.661000000     3.231000000    -1.294000000
C    -0.042000000     5.210000000    -1.860000000
H     0.834000000     5.270000000    -2.501000000
C    -0.212000000     6.144000000    -0.874000000
O     0.673000000     7.131000000    -0.728000000
C    -1.324000000     6.097000000    -0.048000000
H    -1.458000000     6.704000000     0.843000000
C    -2.254000000     5.035000000    -0.190000000
O    -2.907000000     4.699000000     0.971000000
C    -4.268000000     4.534000000     0.804000000
C    -4.850000000     3.317000000     1.203000000
H    -4.274000000     2.583000000     1.760000000
C    -5.072000000     5.463000000     0.158000000
H    -4.667000000     6.391000000    -0.238000000
C    -6.418000000     5.261000000    -0.039000000
H    -7.033000000     6.030000000    -0.500000000
C    -6.969000000     4.016000000     0.310000000
H    -8.033000000     3.841000000     0.170000000
C    -6.149000000     3.037000000     0.832000000
O    -6.734000000     1.825000000     1.109000000
C    -6.153000000     0.642000000     1.208000000
C    -6.220000000    -0.059000000     2.431000000
H    -6.861000000     0.304000000     3.230000000
C    -5.494000000    -1.266000000     2.541000000
O    -5.520000000    -1.880000000     3.789000000
C    -4.847000000    -3.026000000     4.049000000
C    -3.570000000    -2.880000000     4.641000000
H    -3.213000000    -1.883000000     4.884000000
C    -5.319000000    -4.291000000     3.652000000
H    -6.276000000    -4.441000000     3.158000000
C    -4.522000000    -5.404000000     3.792000000
H    -4.765000000    -6.402000000     3.437000000
C    -3.301000000    -5.268000000     4.420000000
H    -2.656000000    -6.106000000     4.671000000
C    -2.786000000    -4.011000000     4.855000000
O    -1.492000000    -3.906000000     5.451000000
C    -0.334000000    -4.022000000     4.640000000
C     0.877000000    -4.014000000     5.369000000
H     0.757000000    -4.086000000     6.447000000
C     2.100000000    -3.805000000     4.757000000
O     3.169000000    -3.372000000     5.472000000
C     4.188000000    -2.534000000     4.970000000
C     4.130000000    -1.114000000     4.932000000
H     3.262000000    -0.591000000     5.327000000
C     5.262000000    -3.155000000     4.359000000
H     5.309000000    -4.241000000     4.385000000
C     6.090000000    -2.466000000     3.579000000
H     6.833000000    -2.979000000     2.974000000
C     5.991000000    -1.096000000     3.445000000
H     6.664000000    -0.661000000     2.711000000
C     5.078000000    -0.371000000     4.224000000
O     4.898000000     0.994000000     4.017000000
C     4.638000000     1.554000000     2.765000000
C     4.637000000     2.912000000     2.661000000
H     4.641000000     3.507000000     3.570000000
C     4.453000000     3.574000000     1.450000000
O     4.353000000     4.934000000     1.500000000
C     3.883000000     5.756000000     0.526000000
C     4.757000000     6.392000000    -0.388000000
H     5.807000000     6.151000000    -0.241000000
C     4.270000000     7.180000000    -1.415000000
H     5.023000000     7.691000000    -2.009000000
C     2.889000000     7.524000000    -1.448000000
H     2.485000000     8.230000000    -2.168000000
C     1.982000000     6.845000000    -0.613000000
C     2.500000000     5.989000000     0.376000000
H     1.856000000     5.401000000     1.026000000
C     0.120000000     0.367000000     2.647000000
H    -0.159000000     0.045000000     3.647000000
C    -0.085000000    -0.410000000     1.539000000
H    -0.645000000    -1.332000000     1.675000000
C     0.224000000     0.038000000     0.239000000
H     0.008000000    -0.579000000    -0.654000000
C     0.777000000     1.316000000     0.062000000
H     1.213000000     1.606000000    -0.891000000
C     0.960000000     2.124000000     1.177000000
H     1.368000000     3.122000000     1.040000000
C     0.664000000     1.612000000     2.463000000
C     0.896000000     2.460000000     3.670000000
O     1.480000000     3.504000000     3.584000000
O     0.384000000     2.106000000     4.698000000
O     4.588000000     5.613000000     7.257000000
H     4.415000000     4.736000000     7.600000000
H     3.872000000     6.149000000     7.599000000
O    -1.423000000     0.310000000     5.873000000
H    -0.668000000     0.877000000     5.716000000
H    -1.134000000    -0.558000000     5.592000000
O     4.096000000     3.061000000     7.842000000
H     4.843000000     2.540000000     8.136000000
H     3.605000000     2.473000000     7.269000000
O     5.718000000     6.452000000     5.057000000
H     5.015000000     6.415000000     4.409000000
H     5.356000000     6.014000000     5.828000000
O    -1.681000000     8.128000000     3.509000000
H    -1.081000000     7.420000000     3.272000000
H    -2.501000000     7.685000000     3.725000000
O    -3.050000000    -0.842000000     8.000000000
H    -2.786000000    -1.747000000     7.834000000
H    -2.547000000    -0.327000000     7.368000000
O     0.118000000     5.937000000     3.025000000
H    -0.593000000     5.367000000     3.317000000
H     0.909000000     5.410000000     3.137000000
O     1.824000000     8.320000000     3.488000000
H     1.527000000     7.449000000     3.226000000
H     1.350000000     8.502000000     4.299000000
O    -1.546000000     4.020000000     4.044000000
H    -0.874000000     3.360000000     4.216000000
H    -2.293000000     3.521000000     3.714000000
O     1.821000000     3.731000000     9.137000000
H     2.696000000     3.710000000     8.750000000
H     1.660000000     2.830000000     9.416000000
O     2.599000000    -1.098000000     8.214000000
H     2.323000000    -1.517000000     7.400000000
H     1.799000000    -0.710000000     8.568000000
O     0.081000000     0.236000000     8.606000000
H    -0.208000000    -0.370000000     9.288000000
H    -0.512000000     0.984000000     8.683000000
O     2.111000000     1.765000000     6.605000000
H     1.612000000     1.563000000     7.396000000
H     1.482000000     1.658000000     5.891000000
O     0.098000000     8.010000000     5.507000000
H    -0.115000000     7.167000000     5.909000000
H    -0.636000000     8.187000000     4.918000000
O    -3.920000000     2.101000000     6.327000000
H    -3.290000000     1.381000000     6.337000000
H    -3.388000000     2.883000000     6.182000000
O     1.192000000     4.571000000     6.054000000
H     1.030000000     3.912000000     6.729000000
H     1.162000000     4.084000000     5.231000000
O     4.349000000     7.749000000     2.704000000
H     3.696000000     8.447000000     2.642000000
H     3.836000000     6.953000000     2.840000000
O     3.030000000     5.530000000     4.459000000
H     2.826000000     4.699000000     4.029000000
H     2.604000000     5.467000000     5.314000000
O    -1.808000000     5.962000000     6.221000000
H    -1.739000000     5.120000000     5.770000000
H    -2.639000000     6.328000000     5.919000000
