215
-1446.86769
C    -4.921000000    -1.741000000     1.640000000
H    -4.808000000    -2.815000000     1.516000000
C    -4.654000000    -0.924000000     0.557000000
C    -4.924000000     0.437000000     0.674000000
H    -4.743000000     1.121000000    -0.151000000
C    -3.944000000    -1.437000000    -0.663000000
O    -4.017000000    -2.827000000    -0.849000000
H    -2.890000000    -1.128000000    -0.621000000
O    -4.534000000    -0.902000000    -1.885000000
C    -3.695000000    -0.564000000    -2.879000000
C    -3.283000000     0.838000000    -2.874000000
H    -3.596000000     1.459000000    -2.039000000
C    -2.219000000     1.228000000    -3.759000000
O    -1.780000000     2.548000000    -3.652000000
C    -1.495000000     0.318000000    -4.502000000
C    -0.333000000     0.741000000    -5.394000000
H    -0.386000000     0.124000000    -6.294000000
C     1.011000000     0.725000000    -4.684000000
C     1.869000000    -0.390000000    -4.633000000
H     1.511000000    -1.302000000    -5.103000000
H    -0.622000000     1.693000000    -5.843000000
C    -1.871000000    -1.039000000    -4.407000000
H    -1.348000000    -1.836000000    -4.930000000
C    -2.934000000    -1.480000000    -3.639000000
C    -3.180000000    -2.987000000    -3.552000000
H    -3.020000000    -3.457000000    -4.525000000
H    -4.241000000    -3.124000000    -3.333000000
C    -2.442000000    -3.602000000    -2.436000000
C    -1.220000000    -4.205000000    -2.645000000
H    -0.843000000    -4.388000000    -3.648000000
C    -2.911000000    -3.490000000    -1.144000000
C    -2.156000000    -4.008000000    -0.070000000
H    -2.488000000    -3.865000000     0.955000000
C    -0.917000000    -4.551000000    -0.317000000
O    -0.171000000    -4.855000000     0.786000000
C     0.738000000    -3.891000000     1.122000000
C     0.630000000    -3.569000000     2.639000000
C     1.477000000    -2.560000000     3.115000000
H     2.195000000    -2.103000000     2.439000000
C    -0.410000000    -4.053000000     3.419000000
H    -1.120000000    -4.735000000     2.959000000
O     2.041000000    -4.356000000     0.781000000
H     0.504000000    -2.951000000     0.600000000
C    -0.408000000    -4.656000000    -1.614000000
C     0.954000000    -5.166000000    -1.932000000
H     0.932000000    -5.520000000    -2.965000000
H     0.995000000    -6.080000000    -1.335000000
C     2.061000000    -4.176000000    -1.655000000
C     2.582000000    -3.518000000    -2.794000000
H     2.244000000    -3.737000000    -3.804000000
C     2.534000000    -3.787000000    -0.369000000
C     3.346000000    -2.683000000    -0.274000000
H     3.735000000    -2.372000000     0.693000000
C     3.818000000    -2.076000000    -1.372000000
O     4.739000000    -1.110000000    -1.167000000
C     4.358000000     0.289000000    -1.152000000
C     5.012000000     1.119000000    -0.044000000
C     5.588000000     0.581000000     1.124000000
H     5.591000000    -0.494000000     1.284000000
C     5.022000000     2.543000000    -0.168000000
H     4.683000000     2.984000000    -1.102000000
O     4.523000000     0.855000000    -2.472000000
H     3.267000000     0.296000000    -1.012000000
C     3.479000000    -2.516000000    -2.659000000
C     3.912000000    -1.648000000    -3.831000000
H     4.005000000    -2.191000000    -4.774000000
H     4.975000000    -1.440000000    -3.687000000
C     3.092000000    -0.405000000    -3.897000000
C     3.480000000     0.774000000    -3.261000000
C     2.658000000     1.865000000    -3.250000000
H     2.974000000     2.779000000    -2.755000000
C     1.386000000     1.806000000    -3.826000000
O     0.586000000     2.875000000    -3.745000000
C    -0.604000000     2.772000000    -2.873000000
H    -0.533000000     1.959000000    -2.134000000
C    -0.748000000     4.013000000    -1.965000000
C    -1.987000000     4.318000000    -1.458000000
H    -2.911000000     3.813000000    -1.727000000
C     0.410000000     4.777000000    -1.683000000
H     1.340000000     4.582000000    -2.212000000
C     0.327000000     5.839000000    -0.777000000
O     1.346000000     6.691000000    -0.467000000
C    -0.937000000     6.095000000    -0.236000000
H    -1.128000000     6.932000000     0.430000000
C    -2.050000000     5.292000000    -0.536000000
O    -3.284000000     5.712000000    -0.121000000
C    -4.444000000     4.965000000     0.020000000
C    -4.655000000     4.004000000     1.018000000
H    -3.904000000     3.794000000     1.775000000
C    -5.435000000     5.277000000    -0.900000000
H    -5.230000000     6.142000000    -1.525000000
C    -6.611000000     4.517000000    -0.797000000
H    -7.334000000     4.726000000    -1.581000000
C    -6.746000000     3.398000000    -0.034000000
H    -7.618000000     2.749000000    -0.004000000
C    -5.776000000     3.130000000     0.890000000
O    -6.000000000     2.234000000     1.944000000
C    -5.538000000     0.922000000     1.825000000
C    -5.805000000     0.074000000     2.867000000
H    -6.329000000     0.454000000     3.740000000
C    -5.579000000    -1.254000000     2.750000000
O    -5.848000000    -2.029000000     3.843000000
C    -5.080000000    -3.070000000     4.310000000
C    -3.713000000    -2.896000000     4.477000000
H    -3.242000000    -1.940000000     4.263000000
C    -5.771000000    -4.267000000     4.497000000
H    -6.838000000    -4.313000000     4.293000000
C    -5.075000000    -5.346000000     4.977000000
H    -5.526000000    -6.269000000     5.334000000
C    -3.637000000    -5.249000000     5.254000000
H    -3.019000000    -5.986000000     5.761000000
C    -3.017000000    -4.029000000     4.965000000
O    -1.690000000    -3.901000000     5.384000000
C    -0.602000000    -3.474000000     4.646000000
C     0.334000000    -2.574000000     5.195000000
H     0.068000000    -2.091000000     6.132000000
C     1.380000000    -2.137000000     4.385000000
O     2.217000000    -1.133000000     4.733000000
C     3.596000000    -1.322000000     4.579000000
C     4.342000000    -0.235000000     4.112000000
H     3.899000000     0.711000000     3.810000000
C     4.231000000    -2.537000000     4.875000000
H     3.593000000    -3.364000000     5.175000000
C     5.639000000    -2.622000000     4.791000000
H     6.109000000    -3.552000000     5.100000000
C     6.331000000    -1.551000000     4.205000000
H     7.403000000    -1.625000000     4.041000000
C     5.701000000    -0.306000000     3.963000000
O     6.286000000     0.840000000     3.403000000
C     5.823000000     1.388000000     2.203000000
C     5.757000000     2.751000000     2.095000000
H     5.895000000     3.458000000     2.909000000
C     5.370000000     3.331000000     0.927000000
O     5.386000000     4.714000000     0.780000000
C     4.701000000     5.468000000    -0.072000000
C     5.372000000     6.157000000    -1.110000000
H     6.443000000     6.013000000    -1.227000000
C     4.704000000     7.095000000    -1.861000000
H     5.238000000     7.617000000    -2.650000000
C     3.368000000     7.397000000    -1.703000000
H     2.769000000     8.109000000    -2.265000000
C     2.658000000     6.578000000    -0.736000000
C     3.355000000     5.733000000     0.155000000
H     2.834000000     5.178000000     0.931000000
C    -0.468000000     0.361000000     2.292000000
H    -0.993000000    -0.014000000     3.167000000
C    -0.490000000    -0.403000000     1.059000000
H    -1.060000000    -1.326000000     0.992000000
C     0.204000000     0.058000000    -0.031000000
H     0.089000000    -0.340000000    -0.989000000
C     0.907000000     1.257000000     0.060000000
H     1.369000000     1.762000000    -0.784000000
C     0.998000000     1.886000000     1.297000000
H     1.442000000     2.873000000     1.393000000
C     0.307000000     1.460000000     2.421000000
C     0.496000000     2.242000000     3.751000000
O     0.981000000     3.340000000     3.778000000
O    -0.174000000     1.925000000     4.758000000
O    -0.511000000     3.928000000     6.549000000
H    -0.394000000     3.232000000     5.902000000
H    -1.460000000     4.007000000     6.648000000
O     1.576000000     1.825000000     6.926000000
H     1.343000000     2.603000000     7.433000000
H     1.067000000     1.903000000     6.120000000
O     0.122000000     7.784000000     2.622000000
H    -0.288000000     6.980000000     2.942000000
H     1.061000000     7.604000000     2.658000000
O     0.497000000     5.114000000     8.699000000
H     0.548000000     4.858000000     7.778000000
H     1.406000000     5.105000000     9.001000000
O    -0.994000000     5.296000000     3.899000000
H    -0.463000000     4.522000000     3.711000000
H    -1.681000000     4.978000000     4.486000000
O     6.317000000     2.959000000     5.591000000
H     5.450000000     3.049000000     5.196000000
H     6.268000000     2.145000000     6.092000000
O    -1.456000000     3.741000000     9.680000000
H    -1.007000000     4.136000000     8.933000000
H    -0.808000000     3.757000000    10.384000000
O     2.608000000    -0.030000000     8.394000000
H     2.216000000     0.678000000     7.882000000
H     2.093000000    -0.804000000     8.165000000
O    -3.917000000     4.097000000     6.652000000
H    -3.937000000     4.346000000     5.728000000
H    -3.637000000     4.890000000     7.108000000
O    -2.117000000     0.324000000     5.763000000
H    -1.697000000    -0.458000000     5.406000000
H    -1.452000000     1.008000000     5.689000000
O     2.918000000     7.760000000     3.004000000
H     2.766000000     6.888000000     3.368000000
H     3.838000000     7.752000000     2.739000000
O     5.733000000     6.853000000     2.360000000
H     5.361000000     6.036000000     2.029000000
H     6.640000000     6.634000000     2.574000000
O    -4.450000000     1.366000000     6.583000000
H    -3.705000000     0.799000000     6.382000000
H    -4.090000000     2.253000000     6.558000000
O     3.467000000     3.534000000     5.860000000
H     3.944000000     3.733000000     6.665000000
H     2.735000000     2.987000000     6.144000000
O    -3.071000000     7.028000000     6.858000000
H    -2.446000000     6.825000000     7.553000000
H    -2.526000000     7.253000000     6.104000000
O    -3.922000000     7.091000000     2.168000000
H    -3.384000000     6.530000000     1.610000000
H    -4.733000000     7.214000000     1.675000000
O     2.332000000     5.416000000     4.183000000
H     1.774000000     4.787000000     3.726000000
H     2.654000000     4.939000000     4.948000000
O    -4.091000000     5.368000000     4.227000000
H    -3.874000000     6.023000000     3.564000000
H    -4.962000000     5.619000000     4.536000000
O     1.047000000     6.937000000     6.156000000
H     0.175000000     7.319000000     6.054000000
H     1.288000000     6.652000000     5.274000000
