215
-1429.20332
C    -4.551000000    -2.271000000     1.646000000
H    -3.881000000    -3.124000000     1.582000000
C    -4.626000000    -1.514000000     0.493000000
C    -5.345000000    -0.353000000     0.546000000
H    -5.419000000     0.285000000    -0.331000000
C    -3.908000000    -1.996000000    -0.749000000
O    -3.665000000    -3.407000000    -0.808000000
H    -2.990000000    -1.395000000    -0.677000000
O    -4.491000000    -1.557000000    -1.961000000
C    -3.684000000    -0.960000000    -2.913000000
C    -3.625000000     0.438000000    -2.984000000
H    -4.317000000     1.041000000    -2.401000000
C    -2.627000000     1.091000000    -3.636000000
O    -2.380000000     2.426000000    -3.388000000
C    -1.748000000     0.359000000    -4.362000000
C    -0.738000000     1.024000000    -5.289000000
H    -0.501000000     0.353000000    -6.118000000
C     0.637000000     1.291000000    -4.590000000
C     1.576000000     0.294000000    -4.666000000
H     1.399000000    -0.661000000    -5.154000000
H    -1.227000000     1.928000000    -5.658000000
C    -1.708000000    -1.024000000    -4.324000000
H    -0.949000000    -1.525000000    -4.920000000
C    -2.679000000    -1.663000000    -3.594000000
C    -2.693000000    -3.138000000    -3.510000000
H    -2.388000000    -3.577000000    -4.462000000
H    -3.695000000    -3.507000000    -3.283000000
C    -1.832000000    -3.659000000    -2.396000000
C    -0.602000000    -4.154000000    -2.738000000
H    -0.187000000    -4.251000000    -3.738000000
C    -2.378000000    -3.787000000    -1.107000000
C    -1.584000000    -4.282000000    -0.063000000
H    -1.847000000    -4.313000000     0.991000000
C    -0.227000000    -4.576000000    -0.389000000
O     0.676000000    -4.825000000     0.684000000
C     1.617000000    -3.781000000     1.088000000
C     1.689000000    -3.636000000     2.554000000
C     2.809000000    -3.110000000     3.166000000
H     3.663000000    -2.712000000     2.625000000
C     0.539000000    -3.982000000     3.302000000
H    -0.389000000    -4.163000000     2.766000000
O     2.874000000    -4.013000000     0.529000000
H     1.335000000    -2.774000000     0.746000000
C     0.248000000    -4.523000000    -1.705000000
C     1.744000000    -4.854000000    -1.910000000
H     1.945000000    -5.273000000    -2.898000000
H     2.162000000    -5.636000000    -1.273000000
C     2.536000000    -3.610000000    -1.734000000
C     2.730000000    -2.779000000    -2.843000000
H     2.237000000    -2.957000000    -3.795000000
C     3.120000000    -3.261000000    -0.533000000
C     3.768000000    -2.132000000    -0.364000000
H     4.131000000    -1.768000000     0.594000000
C     4.056000000    -1.378000000    -1.549000000
O     4.757000000    -0.176000000    -1.256000000
C     3.938000000     0.985000000    -1.172000000
C     4.214000000     1.846000000     0.059000000
C     4.512000000     1.241000000     1.332000000
H     4.449000000     0.166000000     1.482000000
C     4.136000000     3.199000000     0.013000000
H     3.928000000     3.751000000    -0.900000000
O     4.119000000     1.687000000    -2.396000000
H     2.919000000     0.571000000    -1.146000000
C     3.543000000    -1.658000000    -2.808000000
C     3.773000000    -0.738000000    -3.951000000
H     3.581000000    -1.453000000    -4.753000000
H     4.832000000    -0.503000000    -4.078000000
C     2.811000000     0.421000000    -3.986000000
C     3.050000000     1.601000000    -3.202000000
C     2.094000000     2.614000000    -3.266000000
H     2.155000000     3.496000000    -2.635000000
C     0.821000000     2.377000000    -3.789000000
O    -0.212000000     3.179000000    -3.445000000
C    -1.235000000     2.744000000    -2.609000000
H    -0.970000000     1.845000000    -2.033000000
C    -1.607000000     3.896000000    -1.515000000
C    -2.898000000     3.978000000    -0.947000000
H    -3.690000000     3.285000000    -1.217000000
C    -0.692000000     4.833000000    -1.065000000
H     0.327000000     4.780000000    -1.441000000
C    -1.111000000     5.937000000    -0.341000000
O    -0.179000000     6.890000000     0.135000000
C    -2.397000000     6.032000000     0.062000000
H    -2.687000000     6.964000000     0.542000000
C    -3.361000000     5.102000000    -0.286000000
O    -4.617000000     5.285000000     0.194000000
C    -5.546000000     4.243000000     0.079000000
C    -5.628000000     3.269000000     1.063000000
H    -4.975000000     3.233000000     1.931000000
C    -6.413000000     4.278000000    -1.049000000
H    -6.130000000     4.980000000    -1.829000000
C    -7.399000000     3.291000000    -1.206000000
H    -7.963000000     3.338000000    -2.134000000
C    -7.477000000     2.278000000    -0.250000000
H    -8.070000000     1.383000000    -0.423000000
C    -6.577000000     2.264000000     0.842000000
O    -6.780000000     1.186000000     1.695000000
C    -6.019000000     0.032000000     1.684000000
C    -5.831000000    -0.652000000     2.862000000
H    -6.283000000    -0.423000000     3.824000000
C    -5.144000000    -1.904000000     2.842000000
O    -4.835000000    -2.543000000     4.027000000
C    -3.941000000    -3.542000000     4.118000000
C    -2.679000000    -3.238000000     4.646000000
H    -2.472000000    -2.212000000     4.941000000
C    -4.309000000    -4.911000000     3.863000000
H    -5.339000000    -5.114000000     3.581000000
C    -3.366000000    -5.886000000     4.138000000
H    -3.665000000    -6.924000000     4.019000000
C    -2.087000000    -5.561000000     4.673000000
H    -1.470000000    -6.416000000     4.937000000
C    -1.714000000    -4.220000000     4.856000000
O    -0.517000000    -3.859000000     5.429000000
C     0.642000000    -3.837000000     4.690000000
C     1.760000000    -3.339000000     5.339000000
H     1.866000000    -3.101000000     6.394000000
C     2.849000000    -3.019000000     4.596000000
O     4.098000000    -2.820000000     5.219000000
C     5.104000000    -2.019000000     4.579000000
C     4.851000000    -0.648000000     4.399000000
H     3.922000000    -0.165000000     4.690000000
C     6.388000000    -2.535000000     4.203000000
H     6.685000000    -3.579000000     4.270000000
C     7.305000000    -1.712000000     3.551000000
H     8.268000000    -2.060000000     3.184000000
C     6.997000000    -0.361000000     3.331000000
H     7.720000000     0.342000000     2.923000000
C     5.781000000     0.137000000     3.778000000
O     5.593000000     1.466000000     3.590000000
C     4.966000000     2.000000000     2.454000000
C     4.890000000     3.408000000     2.328000000
H     5.122000000     4.043000000     3.179000000
C     4.404000000     3.951000000     1.186000000
O     4.373000000     5.319000000     1.045000000
C     3.391000000     6.021000000     0.315000000
C     3.913000000     6.736000000    -0.739000000
H     4.952000000     6.611000000    -1.035000000
C     3.037000000     7.499000000    -1.452000000
H     3.431000000     7.990000000    -2.339000000
C     1.666000000     7.633000000    -1.157000000
H     0.989000000     8.205000000    -1.787000000
C     1.197000000     6.941000000    -0.131000000
C     2.028000000     6.064000000     0.639000000
H     1.572000000     5.650000000     1.535000000
C    -0.159000000    -0.831000000     3.039000000
H    -0.547000000    -1.440000000     3.852000000
C    -0.406000000    -1.135000000     1.722000000
H    -1.157000000    -1.878000000     1.465000000
C     0.076000000    -0.392000000     0.652000000
H    -0.226000000    -0.598000000    -0.355000000
C     0.858000000     0.693000000     0.944000000
H     1.146000000     1.365000000     0.141000000
C     1.214000000     1.019000000     2.261000000
H     1.730000000     1.954000000     2.464000000
C     0.688000000     0.213000000     3.325000000
C     1.001000000     0.500000000     4.785000000
O     1.663000000     1.406000000     5.115000000
O     0.541000000    -0.184000000     5.669000000
O    -1.299000000     4.237000000     2.863000000
H    -0.544000000     4.007000000     3.403000000
H    -0.979000000     4.930000000     2.285000000
O     1.352000000     2.131000000     7.709000000
H     1.615000000     1.294000000     8.092000000
H     1.337000000     1.967000000     6.765000000
O    -0.534000000     2.290000000    10.208000000
H    -0.640000000     1.339000000    10.167000000
H     0.297000000     2.457000000     9.763000000
O    -1.637000000     0.681000000     7.146000000
H    -2.161000000     0.370000000     6.407000000
H    -0.731000000     0.584000000     6.855000000
O    -0.094000000    -2.260000000     7.507000000
H    -0.365000000    -3.054000000     7.046000000
H     0.136000000    -1.646000000     6.810000000
O    -3.649000000     2.568000000     6.722000000
H    -3.309000000     1.728000000     7.032000000
H    -2.895000000     3.156000000     6.748000000
O     0.842000000     3.790000000     4.253000000
H     1.105000000     2.941000000     4.611000000
H     1.539000000     4.388000000     4.522000000
O     2.523000000    -0.632000000     7.956000000
H     3.421000000    -0.476000000     7.662000000
H     2.009000000    -0.661000000     7.149000000
O    -5.210000000    -0.123000000     6.752000000
H    -6.159000000    -0.061000000     6.863000000
H    -4.964000000     0.695000000     6.321000000
O     3.152000000     3.396000000     9.268000000
H     3.071000000     4.349000000     9.233000000
H     2.700000000     3.088000000     8.482000000
O     0.786000000    -0.548000000    10.179000000
H     1.374000000    -0.535000000     9.424000000
H     0.563000000    -1.472000000    10.292000000
O     0.431000000     5.069000000     8.437000000
H     0.454000000     4.373000000     7.780000000
H     1.350000000     5.296000000     8.578000000
O    -2.114000000     1.675000000     2.648000000
H    -1.768000000     2.566000000     2.697000000
H    -1.414000000     1.169000000     2.236000000
O    -2.325000000    -4.516000000     8.081000000
H    -2.515000000    -3.703000000     7.614000000
H    -2.984000000    -5.134000000     7.765000000
O     6.292000000     2.356000000     7.546000000
H     5.627000000     2.515000000     6.877000000
H     7.116000000     2.611000000     7.130000000
O     2.777000000     4.859000000     5.942000000
H     3.248000000     4.031000000     6.037000000
H     3.420000000     5.457000000     5.562000000
O    -3.082000000     0.345000000     4.810000000
H    -3.541000000    -0.360000000     4.353000000
H    -2.793000000     0.934000000     4.112000000
O    -1.754000000    -0.301000000     9.536000000
H    -1.855000000     0.031000000     8.644000000
H    -0.824000000    -0.515000000     9.608000000
O     3.993000000     2.449000000     5.757000000
H     3.121000000     2.093000000     5.585000000
H     4.550000000     2.056000000     5.086000000
