215
-1462.57796
C    -4.358000000    -1.668000000     1.726000000
H    -3.681000000    -2.515000000     1.801000000
C    -4.579000000    -1.205000000     0.476000000
C    -5.487000000    -0.153000000     0.413000000
H    -5.773000000     0.269000000    -0.548000000
C    -3.828000000    -1.730000000    -0.734000000
O    -3.754000000    -3.177000000    -0.604000000
H    -2.790000000    -1.383000000    -0.632000000
O    -4.461000000    -1.364000000    -1.965000000
C    -3.612000000    -0.920000000    -2.886000000
C    -3.465000000     0.421000000    -3.004000000
H    -4.207000000     1.099000000    -2.589000000
C    -2.531000000     0.968000000    -3.929000000
O    -2.348000000     2.339000000    -3.862000000
C    -1.707000000     0.097000000    -4.700000000
C    -0.567000000     0.690000000    -5.602000000
H    -0.465000000    -0.005000000    -6.438000000
C     0.686000000     0.875000000    -4.754000000
C     1.723000000    -0.109000000    -4.905000000
H     1.731000000    -0.850000000    -5.700000000
H    -0.970000000     1.617000000    -6.016000000
C    -1.857000000    -1.303000000    -4.538000000
H    -1.163000000    -1.989000000    -5.017000000
C    -2.796000000    -1.781000000    -3.613000000
C    -2.847000000    -3.295000000    -3.398000000
H    -2.566000000    -3.762000000    -4.344000000
H    -3.878000000    -3.645000000    -3.316000000
C    -2.016000000    -3.807000000    -2.217000000
C    -0.752000000    -4.197000000    -2.470000000
H    -0.401000000    -4.110000000    -3.495000000
C    -2.566000000    -3.772000000    -0.941000000
C    -1.770000000    -4.098000000     0.195000000
H    -2.234000000    -3.964000000     1.168000000
C    -0.482000000    -4.546000000    -0.096000000
O     0.388000000    -4.719000000     1.043000000
C     1.453000000    -3.765000000     1.303000000
C     1.501000000    -3.602000000     2.848000000
C     2.551000000    -2.875000000     3.440000000
H     3.247000000    -2.363000000     2.781000000
C     0.463000000    -4.151000000     3.699000000
H    -0.453000000    -4.566000000     3.287000000
O     2.753000000    -4.213000000     0.796000000
H     1.216000000    -2.814000000     0.804000000
C     0.106000000    -4.629000000    -1.383000000
C     1.594000000    -5.034000000    -1.624000000
H     1.491000000    -5.471000000    -2.620000000
H     1.895000000    -5.837000000    -0.949000000
C     2.493000000    -3.843000000    -1.578000000
C     2.747000000    -3.110000000    -2.698000000
H     2.177000000    -3.241000000    -3.615000000
C     3.068000000    -3.544000000    -0.367000000
C     3.855000000    -2.363000000    -0.322000000
H     4.291000000    -2.012000000     0.610000000
C     4.087000000    -1.541000000    -1.505000000
O     4.816000000    -0.380000000    -1.259000000
C     3.974000000     0.741000000    -1.161000000
C     4.578000000     1.659000000    -0.105000000
C     5.183000000     1.081000000     1.091000000
H     5.230000000    -0.004000000     1.118000000
C     4.407000000     3.025000000    -0.229000000
H     4.008000000     3.594000000    -1.065000000
O     4.062000000     1.344000000    -2.446000000
H     2.992000000     0.383000000    -0.816000000
C     3.521000000    -1.959000000    -2.658000000
C     3.797000000    -1.198000000    -3.963000000
H     3.711000000    -1.817000000    -4.858000000
H     4.830000000    -0.843000000    -3.944000000
C     2.839000000    -0.055000000    -4.075000000
C     2.961000000     1.126000000    -3.249000000
C     2.075000000     2.132000000    -3.292000000
H     2.226000000     3.088000000    -2.798000000
C     0.862000000     1.970000000    -3.960000000
O    -0.051000000     3.001000000    -3.788000000
C    -1.225000000     2.788000000    -2.979000000
H    -1.024000000     1.975000000    -2.266000000
C    -1.555000000     3.952000000    -1.980000000
C    -2.878000000     4.153000000    -1.589000000
H    -3.652000000     3.647000000    -2.161000000
C    -0.474000000     4.500000000    -1.249000000
H     0.504000000     4.084000000    -1.475000000
C    -0.761000000     5.435000000    -0.242000000
O     0.210000000     6.100000000     0.532000000
C    -2.049000000     5.662000000     0.125000000
H    -2.245000000     6.420000000     0.879000000
C    -3.118000000     4.953000000    -0.481000000
O    -4.411000000     5.216000000     0.082000000
C    -5.481000000     4.396000000    -0.096000000
C    -5.650000000     3.212000000     0.606000000
H    -4.789000000     2.867000000     1.173000000
C    -6.556000000     4.783000000    -0.920000000
H    -6.447000000     5.695000000    -1.502000000
C    -7.696000000     4.004000000    -1.060000000
H    -8.536000000     4.401000000    -1.624000000
C    -7.859000000     2.924000000    -0.223000000
H    -8.807000000     2.393000000    -0.255000000
C    -6.824000000     2.491000000     0.582000000
O    -7.022000000     1.401000000     1.377000000
C    -6.102000000     0.413000000     1.478000000
C    -5.818000000    -0.145000000     2.700000000
H    -6.187000000     0.446000000     3.534000000
C    -4.897000000    -1.153000000     2.873000000
O    -4.345000000    -1.478000000     4.136000000
C    -3.722000000    -2.702000000     4.505000000
C    -2.425000000    -2.768000000     5.139000000
H    -1.849000000    -1.886000000     5.410000000
C    -4.376000000    -3.848000000     4.128000000
H    -5.338000000    -3.775000000     3.628000000
C    -3.766000000    -5.062000000     4.336000000
H    -4.182000000    -5.979000000     3.926000000
C    -2.466000000    -5.174000000     4.904000000
H    -1.962000000    -6.137000000     4.916000000
C    -1.817000000    -4.021000000     5.314000000
O    -0.521000000    -4.075000000     5.870000000
C     0.544000000    -3.922000000     5.058000000
C     1.560000000    -3.136000000     5.612000000
H     1.452000000    -2.750000000     6.622000000
C     2.544000000    -2.649000000     4.779000000
O     3.581000000    -1.930000000     5.408000000
C     4.756000000    -1.555000000     4.730000000
C     4.898000000    -0.244000000     4.350000000
H     4.030000000     0.404000000     4.445000000
C     5.644000000    -2.529000000     4.402000000
H     5.440000000    -3.548000000     4.721000000
C     6.830000000    -2.151000000     3.760000000
H     7.510000000    -2.972000000     3.548000000
C     7.002000000    -0.824000000     3.427000000
H     7.888000000    -0.412000000     2.951000000
C     6.057000000     0.152000000     3.731000000
O     6.230000000     1.458000000     3.304000000
C     5.664000000     1.941000000     2.078000000
C     5.610000000     3.332000000     1.895000000
H     5.904000000     3.993000000     2.706000000
C     4.954000000     3.860000000     0.796000000
O     4.840000000     5.191000000     0.786000000
C     3.759000000     5.775000000     0.123000000
C     4.035000000     6.550000000    -1.007000000
H     5.058000000     6.630000000    -1.364000000
C     2.994000000     7.153000000    -1.680000000
H     3.188000000     7.820000000    -2.516000000
C     1.728000000     7.121000000    -1.122000000
H     0.953000000     7.665000000    -1.656000000
C     1.459000000     6.368000000    -0.013000000
C     2.464000000     5.704000000     0.621000000
H     2.313000000     5.106000000     1.516000000
C    -0.137000000    -0.154000000     3.055000000
H    -0.623000000    -0.654000000     3.889000000
C    -0.405000000    -0.482000000     1.736000000
H    -1.087000000    -1.279000000     1.454000000
C     0.104000000     0.228000000     0.704000000
H    -0.122000000     0.015000000    -0.285000000
C     0.897000000     1.313000000     0.910000000
H     1.386000000     1.785000000     0.061000000
C     1.084000000     1.737000000     2.224000000
H     1.686000000     2.586000000     2.539000000
C     0.612000000     1.007000000     3.333000000
C     0.972000000     1.444000000     4.736000000
O     1.956000000     2.167000000     4.936000000
O     0.220000000     1.064000000     5.648000000
O    -2.531000000     2.531000000     1.984000000
H    -1.874000000     3.129000000     1.628000000
H    -2.022000000     1.854000000     2.430000000
O     0.616000000     2.870000000     7.667000000
H     0.499000000     2.122000000     7.081000000
H     1.176000000     3.473000000     7.178000000
O    -0.954000000     3.899000000     9.571000000
H    -0.362000000     3.368000000     9.039000000
H    -1.279000000     4.570000000     8.971000000
O     3.419000000     5.471000000     8.378000000
H     3.343000000     4.710000000     8.953000000
H     2.978000000     5.206000000     7.570000000
O    -0.369000000    -0.755000000     7.545000000
H    -1.318000000    -0.636000000     7.506000000
H    -0.027000000    -0.184000000     6.856000000
O     2.300000000    -0.739000000     8.389000000
H     1.404000000    -1.007000000     8.182000000
H     2.474000000    -0.008000000     7.796000000
O     3.689000000     2.860000000    10.013000000
H     3.835000000     2.634000000     9.095000000
H     2.903000000     2.373000000    10.259000000
O    -1.832000000     2.893000000     5.292000000
H    -1.264000000     2.195000000     5.617000000
H    -1.425000000     3.171000000     4.472000000
O    -0.441000000     4.180000000     3.341000000
H    -0.773000000     4.790000000     3.999000000
H     0.470000000     4.443000000     3.209000000
O     3.311000000     1.684000000     7.320000000
H     4.192000000     1.515000000     6.984000000
H     2.816000000     1.980000000     6.555000000
O    -1.274000000     6.409000000     5.242000000
H    -0.836000000     6.581000000     6.075000000
H    -0.902000000     7.053000000     4.639000000
O     4.642000000    -1.894000000     8.041000000
H     4.399000000    -2.150000000     7.151000000
H     3.824000000    -1.592000000     8.436000000
O    -2.965000000     4.747000000     6.709000000
H    -2.332000000     5.421000000     6.460000000
H    -2.593000000     3.933000000     6.371000000
O    -4.368000000     3.191000000     3.682000000
H    -3.598000000     2.957000000     3.164000000
H    -4.045000000     3.238000000     4.582000000
O     3.550000000     6.406000000     3.672000000
H     3.500000000     7.342000000     3.478000000
H     4.131000000     6.053000000     2.998000000
O     1.985000000     0.622000000    10.877000000
H     2.030000000    -0.061000000    11.546000000
H     2.101000000     0.155000000    10.050000000
O    -3.156000000    -0.820000000     7.399000000
H    -3.644000000    -0.818000000     6.576000000
H    -3.736000000    -0.385000000     8.023000000
O     2.109000000     4.656000000     5.836000000
H     1.969000000     3.884000000     5.288000000
H     2.773000000     5.164000000     5.369000000
O    -3.201000000     5.953000000     3.309000000
H    -3.033000000     5.012000000     3.274000000
H    -2.647000000     6.269000000     4.022000000
