215
-1460.53803
C    -4.276000000    -2.384000000     1.474000000
H    -3.819000000    -3.370000000     1.461000000
C    -4.131000000    -1.387000000     0.446000000
C    -4.543000000    -0.072000000     0.658000000
H    -4.494000000     0.615000000    -0.183000000
C    -3.524000000    -1.810000000    -0.881000000
O    -3.506000000    -3.303000000    -1.067000000
H    -2.503000000    -1.402000000    -0.862000000
O    -4.099000000    -1.219000000    -2.047000000
C    -3.291000000    -0.751000000    -3.054000000
C    -3.259000000     0.668000000    -3.087000000
H    -3.802000000     1.290000000    -2.380000000
C    -2.266000000     1.297000000    -3.870000000
O    -2.201000000     2.686000000    -3.804000000
C    -1.404000000     0.551000000    -4.738000000
C    -0.426000000     1.288000000    -5.619000000
H    -0.127000000     0.788000000    -6.543000000
C     0.757000000     1.546000000    -4.751000000
C     1.816000000     0.610000000    -4.630000000
H     1.685000000    -0.262000000    -5.265000000
H    -0.891000000     2.200000000    -5.999000000
C    -1.560000000    -0.837000000    -4.810000000
H    -0.938000000    -1.471000000    -5.438000000
C    -2.472000000    -1.478000000    -3.854000000
C    -2.643000000    -2.991000000    -3.893000000
H    -2.364000000    -3.390000000    -4.870000000
H    -3.693000000    -3.263000000    -3.762000000
C    -1.800000000    -3.610000000    -2.790000000
C    -0.473000000    -3.875000000    -3.093000000
H    -0.125000000    -3.724000000    -4.112000000
C    -2.300000000    -3.766000000    -1.516000000
C    -1.553000000    -4.451000000    -0.547000000
H    -1.993000000    -4.657000000     0.425000000
C    -0.243000000    -4.751000000    -0.841000000
O     0.608000000    -5.225000000     0.150000000
C     1.431000000    -4.188000000     0.772000000
C     1.470000000    -4.219000000     2.305000000
C     2.624000000    -3.785000000     2.993000000
H     3.553000000    -3.561000000     2.475000000
C     0.316000000    -4.520000000     3.016000000
H    -0.673000000    -4.607000000     2.573000000
O     2.773000000    -4.227000000     0.314000000
H     1.018000000    -3.206000000     0.499000000
C     0.333000000    -4.496000000    -2.135000000
C     1.836000000    -4.733000000    -2.458000000
H     1.925000000    -4.987000000    -3.516000000
H     2.092000000    -5.705000000    -2.031000000
C     2.697000000    -3.584000000    -2.025000000
C     2.978000000    -2.594000000    -2.980000000
H     2.550000000    -2.692000000    -3.975000000
C     3.082000000    -3.379000000    -0.723000000
C     3.703000000    -2.231000000    -0.320000000
H     3.831000000    -2.047000000     0.744000000
C     4.052000000    -1.297000000    -1.320000000
O     4.512000000    -0.124000000    -0.770000000
C     3.675000000     0.970000000    -0.692000000
C     4.045000000     1.747000000     0.550000000
C     4.471000000     1.140000000     1.708000000
H     4.395000000     0.055000000     1.690000000
C     3.831000000     3.124000000     0.595000000
H     3.398000000     3.647000000    -0.254000000
O     3.739000000     1.805000000    -1.862000000
H     2.658000000     0.626000000    -0.452000000
C     3.708000000    -1.424000000    -2.667000000
C     4.000000000    -0.344000000    -3.732000000
H     3.991000000    -0.996000000    -4.608000000
H     5.038000000    -0.009000000    -3.784000000
C     2.874000000     0.708000000    -3.719000000
C     2.800000000     1.706000000    -2.807000000
C     1.854000000     2.671000000    -2.828000000
H     1.756000000     3.520000000    -2.155000000
C     0.821000000     2.621000000    -3.833000000
O    -0.116000000     3.590000000    -3.872000000
C    -1.197000000     3.305000000    -2.966000000
H    -0.860000000     2.556000000    -2.234000000
C    -1.531000000     4.433000000    -1.983000000
C    -2.802000000     4.481000000    -1.457000000
H    -3.519000000     3.720000000    -1.753000000
C    -0.553000000     5.356000000    -1.632000000
H     0.499000000     5.293000000    -1.898000000
C    -0.871000000     6.435000000    -0.775000000
O    -0.001000000     7.429000000    -0.413000000
C    -2.172000000     6.384000000    -0.223000000
H    -2.538000000     7.193000000     0.405000000
C    -3.094000000     5.461000000    -0.548000000
O    -4.374000000     5.612000000    -0.009000000
C    -5.219000000     4.523000000     0.158000000
C    -4.951000000     3.510000000     1.030000000
H    -3.974000000     3.392000000     1.493000000
C    -6.517000000     4.665000000    -0.408000000
H    -6.762000000     5.475000000    -1.091000000
C    -7.444000000     3.707000000    -0.198000000
H    -8.426000000     3.793000000    -0.656000000
C    -7.160000000     2.584000000     0.624000000
H    -7.841000000     1.763000000     0.831000000
C    -5.870000000     2.494000000     1.214000000
O    -5.609000000     1.538000000     2.121000000
C    -5.239000000     0.248000000     1.820000000
C    -5.428000000    -0.701000000     2.807000000
H    -5.876000000    -0.302000000     3.714000000
C    -4.871000000    -1.975000000     2.667000000
O    -4.888000000    -2.783000000     3.803000000
C    -4.172000000    -3.961000000     3.946000000
C    -2.832000000    -3.896000000     4.388000000
H    -2.298000000    -2.950000000     4.434000000
C    -4.750000000    -5.174000000     3.713000000
H    -5.791000000    -5.169000000     3.401000000
C    -4.065000000    -6.393000000     4.004000000
H    -4.570000000    -7.355000000     3.962000000
C    -2.705000000    -6.297000000     4.491000000
H    -2.220000000    -7.262000000     4.612000000
C    -2.091000000    -5.047000000     4.675000000
O    -0.761000000    -4.948000000     5.147000000
C     0.358000000    -4.541000000     4.424000000
C     1.552000000    -4.121000000     5.055000000
H     1.577000000    -4.205000000     6.138000000
C     2.685000000    -3.789000000     4.342000000
O     3.812000000    -3.487000000     5.073000000
C     4.696000000    -2.460000000     4.687000000
C     4.166000000    -1.179000000     4.613000000
H     3.084000000    -1.077000000     4.633000000
C     6.066000000    -2.641000000     4.700000000
H     6.417000000    -3.669000000     4.739000000
C     6.915000000    -1.581000000     4.363000000
H     7.971000000    -1.823000000     4.275000000
C     6.329000000    -0.316000000     4.166000000
H     6.918000000     0.578000000     3.977000000
C     4.990000000    -0.090000000     4.342000000
O     4.560000000     1.232000000     4.149000000
C     4.651000000     1.897000000     2.907000000
C     4.400000000     3.281000000     2.891000000
H     4.510000000     3.909000000     3.772000000
C     3.996000000     3.903000000     1.706000000
O     3.602000000     5.224000000     1.783000000
C     3.228000000     5.995000000     0.755000000
C     4.094000000     6.416000000    -0.326000000
H     5.141000000     6.124000000    -0.308000000
C     3.600000000     7.255000000    -1.335000000
H     4.236000000     7.505000000    -2.180000000
C     2.236000000     7.681000000    -1.350000000
H     1.712000000     8.148000000    -2.180000000
C     1.408000000     7.191000000    -0.291000000
C     1.930000000     6.385000000     0.710000000
H     1.307000000     6.095000000     1.553000000
C     0.184000000    -0.427000000     2.919000000
H     0.104000000    -1.174000000     3.705000000
C    -0.231000000    -0.684000000     1.628000000
H    -0.680000000    -1.650000000     1.412000000
C     0.047000000     0.243000000     0.577000000
H    -0.204000000     0.030000000    -0.422000000
C     0.730000000     1.421000000     0.893000000
H     0.968000000     2.133000000     0.108000000
C     1.180000000     1.630000000     2.191000000
H     1.628000000     2.583000000     2.461000000
C     0.796000000     0.779000000     3.243000000
C     1.177000000     1.072000000     4.656000000
O     1.512000000     2.234000000     4.975000000
O     0.779000000     0.382000000     5.583000000
O    -2.113000000     5.749000000     5.414000000
H    -1.297000000     5.496000000     5.846000000
H    -2.665000000     6.082000000     6.121000000
O     6.748000000     1.879000000     7.333000000
H     6.393000000     2.561000000     6.764000000
H     7.642000000     1.744000000     7.018000000
O     0.258000000     2.391000000     7.626000000
H     0.722000000     2.178000000     6.816000000
H     0.230000000     1.565000000     8.110000000
O    -1.258000000     2.121000000    10.591000000
H    -1.704000000     2.700000000    11.209000000
H    -0.518000000     2.636000000    10.271000000
O    -1.695000000     0.192000000     6.488000000
H    -2.106000000     0.997000000     6.173000000
H    -0.819000000     0.203000000     6.102000000
O     1.160000000    -0.133000000     8.149000000
H     1.009000000    -1.022000000     8.470000000
H     1.072000000    -0.204000000     7.199000000
O    -4.309000000     2.764000000     7.696000000
H    -4.553000000     1.906000000     8.044000000
H    -3.974000000     2.580000000     6.818000000
O     1.101000000     4.665000000     4.191000000
H     1.113000000     3.738000000     4.432000000
H     2.024000000     4.913000000     4.145000000
O     3.422000000     1.744000000     9.102000000
H     3.729000000     2.067000000     8.255000000
H     3.073000000     0.873000000     8.914000000
O     1.332000000     3.345000000    10.045000000
H     1.579000000     4.134000000     9.563000000
H     1.981000000     2.692000000     9.783000000
O     0.144000000     5.111000000     7.018000000
H     0.042000000     4.192000000     7.266000000
H     1.078000000     5.208000000     6.835000000
O    -1.557000000     3.591000000     2.929000000
H    -1.062000000     4.151000000     3.528000000
H    -0.911000000     3.302000000     2.284000000
O    -3.840000000    -1.481000000     6.310000000
H    -4.257000000    -0.628000000     6.431000000
H    -2.905000000    -1.284000000     6.249000000
O     3.096000000     5.494000000     6.316000000
H     3.549000000     4.654000000     6.384000000
H     3.037000000     5.808000000     7.218000000
O    -3.048000000     2.185000000     5.029000000
H    -2.516000000     2.510000000     4.303000000
H    -3.886000000     2.638000000     4.934000000
O    -1.921000000    -0.591000000     9.111000000
H    -1.941000000    -0.199000000     8.237000000
H    -1.465000000     0.054000000     9.652000000
O     3.720000000     2.613000000     6.356000000
H     2.836000000     2.476000000     6.016000000
H     4.269000000     2.015000000     5.848000000
O     6.220000000     4.093000000     5.907000000
H     6.504000000     4.495000000     5.085000000
H     5.290000000     4.309000000     5.970000000
O     0.959000000    -3.024000000     8.559000000
H     0.827000000    -2.927000000     9.502000000
H     0.475000000    -3.817000000     8.329000000
