215
-1432.29537
C    -3.351000000    -3.260000000     1.831000000
H    -2.583000000    -4.008000000     1.650000000
C    -3.846000000    -2.478000000     0.798000000
C    -4.644000000    -1.400000000     1.106000000
H    -5.033000000    -0.741000000     0.334000000
C    -3.235000000    -2.612000000    -0.631000000
O    -2.882000000    -3.977000000    -1.053000000
H    -2.313000000    -2.020000000    -0.534000000
O    -4.104000000    -2.063000000    -1.596000000
C    -3.693000000    -1.174000000    -2.614000000
C    -3.806000000     0.199000000    -2.418000000
H    -4.483000000     0.519000000    -1.630000000
C    -3.218000000     1.090000000    -3.335000000
O    -3.217000000     2.444000000    -3.043000000
C    -2.326000000     0.659000000    -4.310000000
C    -1.521000000     1.652000000    -5.166000000
H    -1.232000000     1.213000000    -6.123000000
C    -0.235000000     2.008000000    -4.431000000
C     0.970000000     1.385000000    -4.736000000
H     0.988000000     0.599000000    -5.486000000
H    -2.177000000     2.511000000    -5.324000000
C    -2.252000000    -0.716000000    -4.530000000
H    -1.560000000    -1.088000000    -5.281000000
C    -2.841000000    -1.634000000    -3.657000000
C    -2.580000000    -3.080000000    -3.934000000
H    -2.406000000    -3.278000000    -4.994000000
H    -3.401000000    -3.732000000    -3.628000000
C    -1.453000000    -3.649000000    -3.086000000
C    -0.132000000    -3.715000000    -3.575000000
H     0.085000000    -3.394000000    -4.591000000
C    -1.716000000    -4.025000000    -1.769000000
C    -0.684000000    -4.574000000    -1.013000000
H    -0.966000000    -4.858000000    -0.002000000
C     0.686000000    -4.521000000    -1.419000000
O     1.673000000    -4.784000000    -0.474000000
C     2.370000000    -3.628000000     0.094000000
C     2.579000000    -3.714000000     1.586000000
C     3.503000000    -2.908000000     2.141000000
H     4.070000000    -2.218000000     1.521000000
C     1.699000000    -4.412000000     2.419000000
H     0.830000000    -4.852000000     1.937000000
O     3.663000000    -3.366000000    -0.522000000
H     1.833000000    -2.673000000     0.002000000
C     0.926000000    -4.076000000    -2.743000000
C     2.379000000    -3.898000000    -3.220000000
H     2.309000000    -3.784000000    -4.304000000
H     2.936000000    -4.806000000    -2.978000000
C     2.909000000    -2.596000000    -2.713000000
C     2.829000000    -1.426000000    -3.537000000
H     2.293000000    -1.554000000    -4.473000000
C     3.660000000    -2.447000000    -1.522000000
C     4.339000000    -1.221000000    -1.258000000
H     4.959000000    -1.101000000    -0.373000000
C     4.166000000    -0.120000000    -2.044000000
O     4.601000000     1.045000000    -1.489000000
C     3.579000000     1.999000000    -1.062000000
C     3.963000000     2.823000000     0.168000000
C     4.972000000     2.382000000     1.029000000
H     5.552000000     1.547000000     0.645000000
C     3.147000000     3.871000000     0.560000000
H     2.369000000     4.188000000    -0.130000000
O     3.184000000     2.922000000    -2.151000000
H     2.756000000     1.357000000    -0.714000000
C     3.422000000    -0.210000000    -3.221000000
C     3.419000000     0.924000000    -4.148000000
H     3.451000000     0.578000000    -5.183000000
H     4.356000000     1.482000000    -4.095000000
C     2.134000000     1.690000000    -4.016000000
C     2.130000000     2.696000000    -2.993000000
C     0.969000000     3.377000000    -2.776000000
H     0.941000000     4.134000000    -1.998000000
C    -0.238000000     2.996000000    -3.453000000
O    -1.367000000     3.654000000    -3.115000000
C    -2.222000000     2.958000000    -2.232000000
H    -1.730000000     2.099000000    -1.753000000
C    -2.770000000     3.937000000    -1.156000000
C    -4.018000000     3.654000000    -0.625000000
H    -4.597000000     2.819000000    -1.009000000
C    -1.992000000     4.929000000    -0.590000000
H    -1.014000000     5.159000000    -1.005000000
C    -2.480000000     5.692000000     0.414000000
O    -1.742000000     6.766000000     0.814000000
C    -3.780000000     5.501000000     0.963000000
H    -4.166000000     6.052000000     1.816000000
C    -4.497000000     4.437000000     0.457000000
O    -5.771000000     4.242000000     0.954000000
C    -6.286000000     2.977000000     1.002000000
C    -5.713000000     2.061000000     1.825000000
H    -4.831000000     2.319000000     2.405000000
C    -7.291000000     2.569000000     0.086000000
H    -7.712000000     3.294000000    -0.605000000
C    -7.824000000     1.289000000     0.194000000
H    -8.709000000     1.032000000    -0.383000000
C    -7.280000000     0.372000000     1.030000000
H    -7.769000000    -0.544000000     1.351000000
C    -6.227000000     0.758000000     1.890000000
O    -5.711000000    -0.136000000     2.796000000
C    -5.065000000    -1.236000000     2.362000000
C    -4.700000000    -2.065000000     3.397000000
H    -5.017000000    -1.773000000     4.395000000
C    -3.900000000    -3.165000000     3.114000000
O    -3.503000000    -4.003000000     4.139000000
C    -2.632000000    -5.091000000     4.138000000
C    -1.251000000    -4.740000000     4.213000000
H    -1.047000000    -3.672000000     4.181000000
C    -2.927000000    -6.427000000     4.250000000
H    -3.915000000    -6.877000000     4.192000000
C    -1.932000000    -7.339000000     4.585000000
H    -2.213000000    -8.385000000     4.673000000
C    -0.580000000    -7.006000000     4.677000000
H     0.168000000    -7.777000000     4.845000000
C    -0.259000000    -5.693000000     4.505000000
O     1.078000000    -5.320000000     4.633000000
C     1.874000000    -4.499000000     3.774000000
C     2.823000000    -3.697000000     4.351000000
H     2.965000000    -3.800000000     5.423000000
C     3.592000000    -2.852000000     3.545000000
O     4.667000000    -2.195000000     4.136000000
C     5.541000000    -1.268000000     3.547000000
C     5.286000000     0.077000000     3.518000000
H     4.347000000     0.376000000     3.976000000
C     6.720000000    -1.797000000     3.010000000
H     6.820000000    -2.879000000     3.026000000
C     7.622000000    -0.987000000     2.392000000
H     8.495000000    -1.315000000     1.834000000
C     7.379000000     0.371000000     2.410000000
H     8.192000000     1.006000000     2.069000000
C     6.279000000     0.935000000     3.076000000
O     6.053000000     2.329000000     3.175000000
C     5.199000000     2.985000000     2.238000000
C     4.422000000     4.008000000     2.632000000
H     4.538000000     4.420000000     3.632000000
C     3.422000000     4.508000000     1.740000000
O     2.569000000     5.481000000     2.302000000
C     1.798000000     6.339000000     1.553000000
C     2.375000000     7.363000000     0.728000000
H     3.459000000     7.389000000     0.658000000
C     1.573000000     8.130000000    -0.044000000
H     2.087000000     8.721000000    -0.798000000
C     0.204000000     7.901000000    -0.098000000
H    -0.524000000     8.389000000    -0.740000000
C    -0.382000000     6.976000000     0.801000000
C     0.386000000     6.227000000     1.632000000
H    -0.079000000     5.572000000     2.364000000
C     0.157000000    -0.525000000     2.756000000
H    -0.048000000    -1.445000000     3.298000000
C     0.123000000    -0.629000000     1.371000000
H    -0.043000000    -1.572000000     0.856000000
C     0.176000000     0.537000000     0.591000000
H    -0.040000000     0.424000000    -0.514000000
C     0.359000000     1.723000000     1.130000000
H     0.348000000     2.586000000     0.469000000
C     0.399000000     1.817000000     2.526000000
H     0.433000000     2.774000000     3.042000000
C     0.353000000     0.687000000     3.370000000
C     0.171000000     0.758000000     4.820000000
O     0.229000000     1.807000000     5.413000000
O     0.325000000    -0.199000000     5.531000000
O    -2.956000000     0.068000000     4.539000000
H    -2.927000000     0.044000000     3.583000000
H    -2.374000000    -0.641000000     4.814000000
O     4.394000000    -1.635000000     6.862000000
H     3.450000000    -1.673000000     7.015000000
H     4.493000000    -1.821000000     5.928000000
O    -0.331000000     1.033000000     8.154000000
H     0.493000000     0.730000000     8.536000000
H    -0.210000000     0.928000000     7.210000000
O     1.801000000    -1.708000000     7.124000000
H     1.307000000    -1.231000000     6.457000000
H     1.133000000    -2.157000000     7.642000000
O    -1.643000000    -1.798000000     6.356000000
H    -0.908000000    -1.280000000     6.027000000
H    -1.890000000    -1.370000000     7.175000000
O    -4.114000000     3.728000000     7.988000000
H    -3.850000000     2.928000000     7.534000000
H    -4.970000000     3.943000000     7.618000000
O    -3.265000000     3.179000000     4.127000000
H    -2.470000000     3.626000000     4.420000000
H    -3.247000000     2.337000000     4.581000000
O    -2.320000000    -0.443000000     8.856000000
H    -1.711000000     0.295000000     8.831000000
H    -3.175000000    -0.054000000     8.672000000
O     2.061000000     0.662000000     9.967000000
H     1.864000000     1.532000000    10.314000000
H     1.476000000     0.075000000    10.446000000
O    -1.250000000     5.033000000     8.819000000
H    -0.388000000     4.716000000     8.549000000
H    -1.667000000     5.315000000     8.005000000
O    -4.367000000     1.403000000     6.828000000
H    -3.854000000     1.111000000     6.074000000
H    -5.268000000     1.164000000     6.612000000
O     1.787000000     5.730000000     5.573000000
H     2.321000000     5.938000000     6.340000000
H     1.399000000     6.567000000     5.318000000
O     1.097000000     3.911000000     8.057000000
H     2.001000000     3.741000000     8.325000000
H     0.829000000     3.113000000     7.601000000
O     5.458000000     2.145000000     6.468000000
H     6.146000000     2.449000000     5.876000000
H     4.649000000     2.496000000     6.096000000
O    -2.859000000    -3.960000000     7.625000000
H    -2.676000000    -3.481000000     6.816000000
H    -2.029000000    -4.383000000     7.846000000
O    -0.543000000    -2.470000000     9.450000000
H    -0.161000000    -1.981000000    10.179000000
H    -1.116000000    -1.840000000     9.014000000
O    -0.848000000     4.125000000     4.806000000
H    -0.020000000     4.599000000     4.734000000
H    -0.591000000     3.208000000     4.905000000
O    -2.311000000     6.154000000     6.339000000
H    -1.573000000     6.753000000     6.228000000
H    -1.951000000     5.290000000     6.141000000
O     2.883000000     2.814000000     5.258000000
H     2.491000000     3.678000000     5.382000000
H     2.137000000     2.215000000     5.222000000
