215
-1450.07043
C    -4.284000000     2.768000000    -2.159000000
H    -3.900000000     2.799000000    -3.176000000
C    -3.483000000     3.183000000    -1.088000000
C    -4.117000000     3.132000000     0.191000000
H    -3.474000000     3.348000000     1.040000000
C    -2.051000000     3.547000000    -1.137000000
O    -1.702000000     3.861000000    -2.533000000
H    -1.612000000     2.605000000    -0.775000000
O    -1.610000000     4.527000000    -0.161000000
C    -0.340000000     4.408000000     0.345000000
C    -0.243000000     3.963000000     1.624000000
H    -1.139000000     3.754000000     2.202000000
C     1.000000000     3.738000000     2.269000000
O     0.973000000     3.312000000     3.554000000
C     2.173000000     4.001000000     1.558000000
C     3.573000000     3.746000000     2.118000000
H     4.341000000     4.343000000     1.622000000
C     3.901000000     2.272000000     1.993000000
C     4.633000000     1.810000000     0.865000000
H     5.005000000     2.534000000     0.146000000
H     3.589000000     4.049000000     3.168000000
C     2.112000000     4.415000000     0.193000000
H     3.064000000     4.651000000    -0.277000000
C     0.860000000     4.617000000    -0.366000000
C     0.830000000     5.011000000    -1.822000000
H     1.791000000     5.487000000    -2.024000000
H     0.035000000     5.716000000    -2.074000000
C     0.700000000     3.774000000    -2.700000000
C     1.801000000     3.108000000    -3.238000000
H     2.757000000     3.510000000    -2.913000000
C    -0.557000000     3.371000000    -3.073000000
C    -0.709000000     2.307000000    -3.952000000
H    -1.631000000     1.804000000    -4.231000000
C     0.434000000     1.636000000    -4.413000000
O     0.346000000     0.542000000    -5.091000000
C     0.612000000    -0.653000000    -4.241000000
C    -0.592000000    -1.538000000    -4.193000000
C    -0.442000000    -2.786000000    -3.544000000
H     0.519000000    -3.001000000    -3.084000000
C    -1.835000000    -1.132000000    -4.747000000
H    -2.052000000    -0.169000000    -5.202000000
O     1.812000000    -1.275000000    -4.660000000
H     0.724000000    -0.321000000    -3.199000000
C     1.717000000     2.027000000    -4.071000000
C     2.952000000     1.369000000    -4.578000000
H     3.726000000     2.127000000    -4.718000000
H     2.733000000     1.056000000    -5.601000000
C     3.444000000     0.220000000    -3.655000000
C     4.443000000     0.467000000    -2.732000000
H     4.875000000     1.463000000    -2.669000000
C     2.881000000    -1.036000000    -3.793000000
C     3.220000000    -2.038000000    -2.910000000
H     2.727000000    -3.008000000    -2.901000000
C     4.048000000    -1.749000000    -1.805000000
O     4.050000000    -2.720000000    -0.814000000
C     3.621000000    -2.449000000     0.537000000
C     3.212000000    -3.767000000     1.186000000
C     2.955000000    -4.911000000     0.474000000
H     3.113000000    -4.837000000    -0.599000000
C     2.981000000    -3.838000000     2.580000000
H     3.006000000    -2.954000000     3.213000000
O     4.592000000    -1.749000000     1.446000000
H     2.767000000    -1.757000000     0.481000000
C     4.649000000    -0.437000000    -1.702000000
C     5.636000000    -0.055000000    -0.557000000
H     6.206000000     0.811000000    -0.900000000
H     6.315000000    -0.868000000    -0.292000000
C     4.879000000     0.423000000     0.649000000
C     4.409000000    -0.443000000     1.621000000
C     3.567000000    -0.047000000     2.664000000
H     3.047000000    -0.759000000     3.300000000
C     3.355000000     1.305000000     2.850000000
O     2.525000000     1.549000000     3.923000000
C     1.129000000     1.853000000     3.645000000
H     0.901000000     1.451000000     2.647000000
C     0.094000000     1.167000000     4.549000000
C    -1.256000000     1.435000000     4.346000000
H    -1.569000000     2.257000000     3.708000000
C     0.427000000     0.153000000     5.414000000
H     1.462000000    -0.094000000     5.634000000
C    -0.541000000    -0.424000000     6.298000000
O    -0.174000000    -1.489000000     7.114000000
C    -1.877000000    -0.007000000     6.195000000
H    -2.623000000    -0.525000000     6.792000000
C    -2.214000000     0.847000000     5.209000000
O    -3.555000000     1.142000000     5.147000000
C    -4.062000000     2.237000000     4.523000000
C    -4.648000000     2.028000000     3.300000000
H    -4.648000000     1.030000000     2.870000000
C    -4.300000000     3.447000000     5.248000000
H    -3.896000000     3.482000000     6.257000000
C    -4.906000000     4.481000000     4.627000000
H    -4.991000000     5.375000000     5.239000000
C    -5.550000000     4.295000000     3.410000000
H    -6.093000000     5.143000000     3.001000000
C    -5.266000000     3.085000000     2.728000000
O    -5.947000000     2.892000000     1.596000000
C    -5.420000000     2.886000000     0.362000000
C    -6.199000000     2.524000000    -0.780000000
H    -7.275000000     2.445000000    -0.650000000
C    -5.617000000     2.437000000    -1.977000000
O    -6.391000000     2.027000000    -3.060000000
C    -5.958000000     1.321000000    -4.194000000
C    -5.114000000     0.221000000    -4.154000000
H    -4.667000000    -0.159000000    -3.239000000
C    -6.648000000     1.639000000    -5.357000000
H    -7.481000000     2.338000000    -5.356000000
C    -6.413000000     0.900000000    -6.508000000
H    -6.984000000     1.010000000    -7.427000000
C    -5.353000000    -0.028000000    -6.548000000
H    -5.183000000    -0.730000000    -7.361000000
C    -4.808000000    -0.430000000    -5.316000000
O    -4.118000000    -1.655000000    -5.258000000
C    -2.907000000    -2.064000000    -4.666000000
C    -2.708000000    -3.337000000    -4.099000000
H    -3.578000000    -3.979000000    -3.987000000
C    -1.485000000    -3.658000000    -3.499000000
O    -1.360000000    -4.903000000    -2.862000000
C    -0.125000000    -5.573000000    -2.660000000
C     0.155000000    -6.126000000    -1.437000000
H    -0.492000000    -6.085000000    -0.565000000
C     0.800000000    -5.682000000    -3.666000000
H     0.641000000    -5.221000000    -4.638000000
C     2.007000000    -6.340000000    -3.444000000
H     2.668000000    -6.500000000    -4.292000000
C     2.375000000    -6.793000000    -2.164000000
H     3.354000000    -7.246000000    -2.031000000
C     1.431000000    -6.633000000    -1.174000000
O     1.828000000    -6.952000000     0.119000000
C     2.299000000    -6.003000000     1.011000000
C     1.921000000    -6.003000000     2.354000000
H     1.298000000    -6.764000000     2.817000000
C     2.280000000    -4.880000000     3.103000000
O     1.813000000    -4.946000000     4.427000000
C     1.902000000    -3.992000000     5.369000000
C     3.069000000    -3.874000000     6.100000000
H     3.903000000    -4.545000000     5.911000000
C     3.206000000    -2.892000000     7.030000000
H     4.145000000    -2.838000000     7.576000000
C     2.079000000    -2.203000000     7.463000000
H     2.185000000    -1.465000000     8.254000000
C     0.902000000    -2.262000000     6.706000000
C     0.797000000    -3.227000000     5.694000000
H    -0.138000000    -3.234000000     5.140000000
C    -1.246000000    -2.023000000    -0.206000000
H    -1.211000000    -3.048000000    -0.566000000
C    -0.163000000    -1.200000000    -0.464000000
H     0.758000000    -1.587000000    -0.892000000
C    -0.173000000     0.075000000     0.113000000
H     0.698000000     0.694000000     0.138000000
C    -1.206000000     0.480000000     0.912000000
H    -1.131000000     1.469000000     1.357000000
C    -2.317000000    -0.298000000     1.114000000
H    -3.046000000     0.121000000     1.803000000
C    -2.390000000    -1.557000000     0.502000000
C    -3.689000000    -2.298000000     0.822000000
O    -4.561000000    -1.730000000     1.436000000
O    -3.955000000    -3.397000000     0.382000000
O    -5.828000000    -3.911000000    -1.799000000
H    -6.293000000    -3.077000000    -1.729000000
H    -5.167000000    -3.876000000    -1.108000000
O    -2.548000000    -3.876000000     4.518000000
H    -1.865000000    -4.380000000     4.960000000
H    -2.969000000    -4.506000000     3.933000000
O    -9.948000000    -3.634000000    -0.197000000
H    -9.526000000    -4.100000000     0.524000000
H   -10.877000000    -3.849000000    -0.110000000
O    -6.947000000    -4.252000000     4.888000000
H    -6.458000000    -4.201000000     4.067000000
H    -7.743000000    -4.732000000     4.664000000
O    -8.424000000    -1.823000000     3.939000000
H    -7.730000000    -2.231000000     4.457000000
H    -9.030000000    -2.538000000     3.745000000
O    -3.025000000    -3.147000000     7.170000000
H    -2.707000000    -3.406000000     6.305000000
H    -3.761000000    -3.735000000     7.341000000
O    -7.344000000    -1.510000000    -1.288000000
H    -8.289000000    -1.461000000    -1.147000000
H    -6.963000000    -1.138000000    -0.493000000
O    -6.280000000    -4.204000000     2.241000000
H    -5.622000000    -3.637000000     1.841000000
H    -6.738000000    -4.601000000     1.500000000
O    -4.316000000    -6.270000000     3.949000000
H    -5.075000000    -6.043000000     3.411000000
H    -3.701000000    -6.675000000     3.337000000
O    -3.026000000    -5.639000000    -0.477000000
H    -2.714000000    -5.261000000    -1.300000000
H    -3.348000000    -4.889000000     0.023000000
O    -2.436000000    -6.941000000     2.144000000
H    -2.629000000    -6.565000000     1.284000000
H    -2.031000000    -7.786000000     1.951000000
O    -7.030000000    -0.819000000     1.423000000
H    -6.120000000    -1.115000000     1.429000000
H    -7.349000000    -1.009000000     2.305000000
O    -4.791000000    -2.329000000     4.368000000
H    -3.936000000    -2.698000000     4.591000000
H    -4.613000000    -1.740000000     3.635000000
O    -8.068000000    -2.022000000    -4.115000000
H    -8.744000000    -2.600000000    -3.763000000
H    -7.474000000    -1.872000000    -3.380000000
O    -5.335000000    -0.770000000     6.593000000
H    -5.097000000    -1.411000000     5.924000000
H    -4.915000000     0.041000000     6.307000000
O    -7.083000000    -5.342000000     0.038000000
H    -7.341000000    -6.089000000    -0.503000000
H    -6.704000000    -4.718000000    -0.580000000
O    -6.772000000    -5.093000000    -4.004000000
H    -7.692000000    -4.953000000    -3.783000000
H    -6.288000000    -4.695000000    -3.280000000
O    -4.838000000    -5.165000000     6.649000000
H    -4.684000000    -5.008000000     5.717000000
H    -5.763000000    -4.956000000     6.777000000
O    -4.435000000    -7.758000000    -2.277000000
H    -4.253000000    -8.533000000    -1.745000000
H    -4.269000000    -7.020000000    -1.690000000
