215
-1465.97479
C    -4.229000000    -3.316000000     1.281000000
H    -3.970000000    -4.297000000     0.891000000
C    -4.099000000    -2.247000000     0.399000000
C    -4.463000000    -0.984000000     0.866000000
H    -4.345000000    -0.124000000     0.211000000
C    -3.416000000    -2.313000000    -0.926000000
O    -3.150000000    -3.690000000    -1.336000000
H    -2.401000000    -1.891000000    -0.882000000
O    -4.067000000    -1.551000000    -1.970000000
C    -3.317000000    -0.812000000    -2.970000000
C    -3.235000000     0.570000000    -2.908000000
H    -3.782000000     1.057000000    -2.105000000
C    -2.459000000     1.296000000    -3.816000000
O    -2.456000000     2.615000000    -3.542000000
C    -1.570000000     0.620000000    -4.688000000
C    -0.551000000     1.362000000    -5.581000000
H    -0.374000000     0.723000000    -6.449000000
C     0.687000000     1.762000000    -4.816000000
C     1.805000000     0.908000000    -4.840000000
H     1.786000000     0.035000000    -5.487000000
H    -1.032000000     2.215000000    -6.065000000
C    -1.711000000    -0.783000000    -4.726000000
H    -1.064000000    -1.255000000    -5.461000000
C    -2.527000000    -1.520000000    -3.853000000
C    -2.495000000    -2.993000000    -4.001000000
H    -2.227000000    -3.161000000    -5.046000000
H    -3.508000000    -3.376000000    -3.864000000
C    -1.504000000    -3.647000000    -3.043000000
C    -0.155000000    -3.837000000    -3.364000000
H     0.110000000    -3.457000000    -4.348000000
C    -1.943000000    -4.006000000    -1.761000000
C    -1.092000000    -4.460000000    -0.799000000
H    -1.510000000    -4.671000000     0.182000000
C     0.271000000    -4.604000000    -1.094000000
O     1.023000000    -4.880000000    -0.042000000
C     1.710000000    -3.742000000     0.529000000
C     1.627000000    -3.758000000     2.083000000
C     2.282000000    -2.802000000     2.849000000
H     3.019000000    -2.155000000     2.380000000
C     0.704000000    -4.526000000     2.757000000
H     0.073000000    -5.276000000     2.286000000
O     3.070000000    -3.693000000     0.084000000
H     1.167000000    -2.835000000     0.223000000
C     0.738000000    -4.191000000    -2.347000000
C     2.189000000    -4.332000000    -2.681000000
H     2.322000000    -4.684000000    -3.706000000
H     2.580000000    -5.129000000    -2.044000000
C     3.020000000    -3.103000000    -2.282000000
C     3.226000000    -2.124000000    -3.229000000
H     2.978000000    -2.300000000    -4.273000000
C     3.344000000    -2.813000000    -0.941000000
C     4.047000000    -1.659000000    -0.583000000
H     4.354000000    -1.491000000     0.446000000
C     4.214000000    -0.670000000    -1.558000000
O     4.638000000     0.570000000    -1.180000000
C     3.664000000     1.575000000    -0.979000000
C     3.886000000     2.358000000     0.324000000
C     4.649000000     1.740000000     1.363000000
H     5.151000000     0.789000000     1.206000000
C     3.146000000     3.541000000     0.585000000
H     2.419000000     3.815000000    -0.175000000
O     3.813000000     2.486000000    -2.107000000
H     2.684000000     1.081000000    -0.910000000
C     3.795000000    -0.897000000    -2.855000000
C     4.002000000     0.181000000    -3.936000000
H     4.119000000    -0.368000000    -4.872000000
H     4.975000000     0.632000000    -3.728000000
C     2.842000000     1.177000000    -3.966000000
C     2.872000000     2.261000000    -3.126000000
C     1.778000000     3.087000000    -3.168000000
H     1.720000000     3.936000000    -2.492000000
C     0.686000000     2.836000000    -3.942000000
O    -0.390000000     3.657000000    -3.699000000
C    -1.386000000     3.137000000    -2.784000000
H    -1.012000000     2.361000000    -2.101000000
C    -1.819000000     4.307000000    -1.839000000
C    -2.803000000     4.009000000    -0.922000000
H    -3.194000000     2.995000000    -0.950000000
C    -1.112000000     5.462000000    -1.739000000
H    -0.308000000     5.719000000    -2.424000000
C    -1.481000000     6.393000000    -0.816000000
O    -0.705000000     7.472000000    -0.540000000
C    -2.520000000     6.161000000     0.145000000
H    -2.783000000     6.841000000     0.951000000
C    -3.213000000     4.958000000     0.025000000
O    -4.113000000     4.737000000     1.011000000
C    -4.984000000     3.695000000     0.975000000
C    -4.727000000     2.636000000     1.824000000
H    -3.911000000     2.668000000     2.542000000
C    -5.954000000     3.614000000     0.024000000
H    -6.123000000     4.508000000    -0.571000000
C    -6.765000000     2.459000000    -0.078000000
H    -7.481000000     2.477000000    -0.896000000
C    -6.496000000     1.376000000     0.770000000
H    -7.062000000     0.461000000     0.618000000
C    -5.511000000     1.500000000     1.761000000
O    -5.206000000     0.472000000     2.573000000
C    -5.026000000    -0.796000000     2.134000000
C    -5.307000000    -1.896000000     2.957000000
H    -5.814000000    -1.852000000     3.917000000
C    -4.937000000    -3.163000000     2.483000000
O    -5.014000000    -4.232000000     3.376000000
C    -3.989000000    -5.046000000     3.595000000
C    -2.760000000    -4.610000000     4.132000000
H    -2.544000000    -3.565000000     4.340000000
C    -4.318000000    -6.432000000     3.512000000
H    -5.259000000    -6.863000000     3.180000000
C    -3.299000000    -7.325000000     3.786000000
H    -3.459000000    -8.400000000     3.783000000
C    -1.949000000    -6.919000000     4.005000000
H    -1.177000000    -7.641000000     4.258000000
C    -1.716000000    -5.554000000     4.249000000
O    -0.432000000    -5.225000000     4.713000000
C     0.557000000    -4.495000000     4.142000000
C     1.223000000    -3.525000000     4.860000000
H     1.125000000    -3.452000000     5.940000000
C     2.120000000    -2.702000000     4.254000000
O     2.806000000    -1.792000000     5.049000000
C     4.040000000    -1.288000000     4.663000000
C     4.247000000     0.045000000     4.244000000
H     3.463000000     0.797000000     4.275000000
C     5.167000000    -2.173000000     4.598000000
H     5.026000000    -3.217000000     4.866000000
C     6.423000000    -1.707000000     4.300000000
H     7.279000000    -2.318000000     4.573000000
C     6.589000000    -0.380000000     3.934000000
H     7.592000000    -0.020000000     3.719000000
C     5.471000000     0.482000000     3.989000000
O     5.595000000     1.763000000     3.501000000
C     4.739000000     2.388000000     2.554000000
C     4.041000000     3.619000000     2.839000000
H     4.197000000     4.053000000     3.823000000
C     3.205000000     4.165000000     1.842000000
O     2.532000000     5.291000000     2.203000000
C     2.199000000     6.253000000     1.318000000
C     3.066000000     7.314000000     0.972000000
H     4.074000000     7.178000000     1.356000000
C     2.757000000     8.344000000     0.100000000
H     3.485000000     9.138000000    -0.047000000
C     1.495000000     8.392000000    -0.491000000
H     1.200000000     9.217000000    -1.134000000
C     0.610000000     7.339000000    -0.198000000
C     0.984000000     6.306000000     0.659000000
H     0.233000000     5.599000000     1.003000000
C    -1.045000000    -0.004000000     1.998000000
H    -1.560000000    -0.640000000     2.713000000
C    -0.646000000    -0.474000000     0.779000000
H    -0.803000000    -1.535000000     0.605000000
C     0.016000000     0.345000000    -0.101000000
H     0.263000000    -0.172000000    -1.035000000
C     0.231000000     1.645000000     0.166000000
H     0.810000000     2.263000000    -0.515000000
C    -0.125000000     2.154000000     1.453000000
H    -0.002000000     3.200000000     1.723000000
C    -0.756000000     1.287000000     2.348000000
C    -1.352000000     1.840000000     3.596000000
O    -1.227000000     3.042000000     3.856000000
O    -1.805000000     1.097000000     4.424000000
O     4.539000000     3.847000000     6.353000000
H     3.673000000     3.463000000     6.489000000
H     4.387000000     4.792000000     6.363000000
O     1.082000000    -0.633000000     7.093000000
H     1.469000000    -1.477000000     7.328000000
H     1.831000000    -0.080000000     6.873000000
O    -2.313000000     3.803000000     6.401000000
H    -1.945000000     3.834000000     5.518000000
H    -2.000000000     2.973000000     6.761000000
O    -2.893000000     5.192000000     8.789000000
H    -2.824000000     4.661000000     7.995000000
H    -2.039000000     5.618000000     8.866000000
O    -8.263000000     3.359000000     2.880000000
H    -9.073000000     2.849000000     2.914000000
H    -7.591000000     2.763000000     3.210000000
O    -3.627000000     0.833000000     7.892000000
H    -2.693000000     0.626000000     7.884000000
H    -3.888000000     0.798000000     6.972000000
O    -4.832000000     3.610000000     5.302000000
H    -4.629000000     4.441000000     4.873000000
H    -4.053000000     3.413000000     5.823000000
O     2.009000000     3.348000000     6.721000000
H     1.607000000     3.966000000     6.110000000
H     1.485000000     3.425000000     7.519000000
O    -1.153000000    -3.421000000     7.424000000
H    -1.360000000    -2.685000000     6.848000000
H    -1.970000000    -3.918000000     7.480000000
O     0.953000000     4.712000000     4.377000000
H     1.394000000     4.963000000     3.565000000
H     0.245000000     4.133000000     4.095000000
O    -0.734000000     7.261000000     4.526000000
H    -1.081000000     6.381000000     4.377000000
H    -0.691000000     7.344000000     5.479000000
O    -0.096000000     5.589000000     8.591000000
H     0.191000000     4.689000000     8.743000000
H     0.716000000     6.084000000     8.483000000
O     3.428000000     0.927000000     7.364000000
H     3.228000000     1.514000000     6.635000000
H     3.354000000     1.478000000     8.142000000
O    -1.803000000    -1.460000000     5.494000000
H    -0.872000000    -1.433000000     5.274000000
H    -2.153000000    -0.635000000     5.157000000
O    -7.023000000     1.848000000     5.308000000
H    -6.301000000     2.453000000     5.135000000
H    -6.625000000     1.139000000     5.814000000
O     0.617000000     3.084000000     8.979000000
H     0.352000000     2.201000000     8.723000000
H     1.149000000     2.956000000     9.764000000
O    -4.483000000     0.541000000     5.282000000
H    -5.112000000     0.406000000     4.573000000
H    -3.648000000     0.688000000     4.837000000
O    -2.335000000     5.280000000     3.587000000
H    -2.731000000     5.138000000     2.728000000
H    -1.961000000     4.430000000     3.822000000
O    -1.078000000     1.189000000     6.806000000
H    -0.357000000     0.566000000     6.903000000
H    -1.307000000     1.147000000     5.877000000
