215
-1481.66515
C    -4.013000000    -3.162000000     1.210000000
H    -3.681000000    -4.173000000     0.988000000
C    -3.992000000    -2.177000000     0.233000000
C    -4.526000000    -0.894000000     0.586000000
H    -4.669000000    -0.141000000    -0.185000000
C    -3.340000000    -2.275000000    -1.102000000
O    -3.077000000    -3.665000000    -1.442000000
H    -2.330000000    -1.852000000    -0.995000000
O    -4.096000000    -1.655000000    -2.190000000
C    -3.317000000    -0.887000000    -3.022000000
C    -3.363000000     0.500000000    -2.808000000
H    -4.074000000     0.999000000    -2.155000000
C    -2.512000000     1.319000000    -3.530000000
O    -2.625000000     2.729000000    -3.272000000
C    -1.635000000     0.812000000    -4.477000000
C    -0.703000000     1.708000000    -5.260000000
H    -0.440000000     1.220000000    -6.202000000
C     0.550000000     2.030000000    -4.475000000
C     1.658000000     1.192000000    -4.589000000
H     1.702000000     0.409000000    -5.341000000
H    -1.153000000     2.660000000    -5.549000000
C    -1.606000000    -0.548000000    -4.780000000
H    -0.776000000    -0.953000000    -5.352000000
C    -2.432000000    -1.432000000    -3.995000000
C    -2.321000000    -2.947000000    -4.250000000
H    -2.018000000    -3.244000000    -5.257000000
H    -3.315000000    -3.379000000    -4.116000000
C    -1.360000000    -3.487000000    -3.157000000
C     0.011000000    -3.619000000    -3.543000000
H     0.393000000    -3.217000000    -4.478000000
C    -1.771000000    -3.919000000    -1.924000000
C    -0.851000000    -4.444000000    -1.006000000
H    -1.183000000    -4.728000000    -0.011000000
C     0.460000000    -4.557000000    -1.317000000
O     1.262000000    -5.047000000    -0.387000000
C     2.012000000    -4.028000000     0.328000000
C     2.130000000    -4.221000000     1.847000000
C     3.234000000    -3.819000000     2.591000000
H     4.190000000    -3.580000000     2.133000000
C     0.936000000    -4.512000000     2.571000000
H     0.076000000    -4.799000000     1.972000000
O     3.337000000    -3.934000000    -0.271000000
H     1.519000000    -3.049000000     0.238000000
C     0.923000000    -4.104000000    -2.568000000
C     2.418000000    -4.257000000    -2.960000000
H     2.383000000    -4.235000000    -4.052000000
H     2.880000000    -5.147000000    -2.528000000
C     3.168000000    -3.042000000    -2.453000000
C     3.445000000    -1.977000000    -3.299000000
H     3.215000000    -2.093000000    -4.355000000
C     3.577000000    -2.947000000    -1.159000000
C     4.121000000    -1.742000000    -0.736000000
H     4.231000000    -1.639000000     0.340000000
C     4.297000000    -0.620000000    -1.533000000
O     4.710000000     0.602000000    -1.046000000
C     3.774000000     1.661000000    -0.809000000
C     3.921000000     2.423000000     0.528000000
C     4.058000000     1.526000000     1.625000000
H     4.421000000     0.522000000     1.421000000
C     3.460000000     3.763000000     0.731000000
H     3.127000000     4.376000000    -0.103000000
O     3.730000000     2.573000000    -1.919000000
H     2.771000000     1.210000000    -0.818000000
C     3.864000000    -0.730000000    -2.890000000
C     3.960000000     0.405000000    -3.912000000
H     3.912000000    -0.094000000    -4.882000000
H     4.892000000     0.937000000    -3.708000000
C     2.791000000     1.371000000    -3.845000000
C     2.801000000     2.435000000    -2.924000000
C     1.663000000     3.273000000    -2.779000000
H     1.691000000     4.101000000    -2.075000000
C     0.531000000     3.074000000    -3.567000000
O    -0.598000000     3.821000000    -3.410000000
C    -1.581000000     3.327000000    -2.474000000
H    -1.078000000     2.561000000    -1.865000000
C    -2.073000000     4.222000000    -1.401000000
C    -3.358000000     4.148000000    -1.001000000
H    -3.920000000     3.326000000    -1.436000000
C    -1.267000000     5.188000000    -0.851000000
H    -0.280000000     5.369000000    -1.270000000
C    -1.819000000     6.103000000     0.104000000
O    -1.070000000     7.148000000     0.589000000
C    -3.082000000     5.927000000     0.520000000
H    -3.469000000     6.598000000     1.283000000
C    -3.893000000     4.995000000    -0.014000000
O    -5.197000000     4.943000000     0.352000000
C    -5.898000000     3.758000000     0.523000000
C    -5.401000000     2.745000000     1.393000000
H    -4.476000000     2.984000000     1.911000000
C    -7.108000000     3.592000000    -0.099000000
H    -7.501000000     4.388000000    -0.726000000
C    -7.806000000     2.326000000     0.040000000
H    -8.783000000     2.215000000    -0.423000000
C    -7.218000000     1.247000000     0.752000000
H    -7.731000000     0.290000000     0.804000000
C    -6.058000000     1.485000000     1.470000000
O    -5.551000000     0.482000000     2.301000000
C    -5.141000000    -0.722000000     1.815000000
C    -5.087000000    -1.782000000     2.778000000
H    -5.385000000    -1.741000000     3.822000000
C    -4.553000000    -3.026000000     2.479000000
O    -4.627000000    -4.062000000     3.315000000
C    -3.599000000    -4.960000000     3.366000000
C    -2.373000000    -4.490000000     3.850000000
H    -2.291000000    -3.421000000     4.030000000
C    -3.821000000    -6.359000000     3.353000000
H    -4.766000000    -6.741000000     2.976000000
C    -2.812000000    -7.238000000     3.649000000
H    -2.958000000    -8.315000000     3.678000000
C    -1.594000000    -6.785000000     4.091000000
H    -0.823000000    -7.459000000     4.455000000
C    -1.359000000    -5.376000000     4.225000000
O    -0.151000000    -4.909000000     4.700000000
C     0.930000000    -4.482000000     3.956000000
C     2.082000000    -4.132000000     4.657000000
H     2.023000000    -4.018000000     5.736000000
C     3.239000000    -3.787000000     3.977000000
O     4.379000000    -3.411000000     4.668000000
C     5.017000000    -2.179000000     4.418000000
C     4.294000000    -1.003000000     4.471000000
H     3.243000000    -1.056000000     4.744000000
C     6.406000000    -2.079000000     4.221000000
H     7.072000000    -2.929000000     4.346000000
C     7.031000000    -0.845000000     3.903000000
H     8.089000000    -0.749000000     3.673000000
C     6.247000000     0.287000000     3.824000000
H     6.669000000     1.243000000     3.525000000
C     4.895000000     0.167000000     4.081000000
O     4.037000000     1.246000000     4.011000000
C     3.883000000     2.037000000     2.913000000
C     3.475000000     3.334000000     3.083000000
H     3.300000000     3.579000000     4.127000000
C     3.323000000     4.271000000     2.028000000
O     2.895000000     5.503000000     2.437000000
C     2.319000000     6.445000000     1.611000000
C     3.049000000     7.322000000     0.780000000
H     4.128000000     7.201000000     0.729000000
C     2.377000000     8.235000000    -0.060000000
H     3.058000000     8.828000000    -0.664000000
C     0.989000000     8.168000000    -0.151000000
H     0.469000000     8.762000000    -0.898000000
C     0.285000000     7.237000000     0.584000000
C     0.926000000     6.388000000     1.517000000
H     0.428000000     5.691000000     2.187000000
C    -1.455000000    -0.339000000     2.174000000
H    -2.032000000    -0.904000000     2.901000000
C    -0.923000000    -0.905000000     1.051000000
H    -0.947000000    -1.986000000     0.944000000
C    -0.153000000    -0.158000000     0.115000000
H     0.252000000    -0.597000000    -0.782000000
C     0.035000000     1.218000000     0.394000000
H     0.558000000     1.792000000    -0.367000000
C    -0.490000000     1.796000000     1.535000000
H    -0.331000000     2.857000000     1.708000000
C    -1.273000000     1.059000000     2.458000000
C    -1.973000000     1.760000000     3.597000000
O    -1.840000000     2.976000000     3.745000000
O    -2.767000000     1.067000000     4.168000000
O     1.271000000     1.543000000     6.184000000
H     0.796000000     0.717000000     6.086000000
H     0.909000000     2.110000000     5.503000000
O    -0.605000000     3.105000000     8.529000000
H    -0.480000000     2.277000000     8.992000000
H    -1.262000000     2.909000000     7.860000000
O     0.204000000    -1.661000000     5.443000000
H     0.899000000    -1.850000000     6.073000000
H     0.623000000    -1.108000000     4.783000000
O    -1.630000000     5.890000000     6.456000000
H    -2.016000000     5.837000000     5.582000000
H    -2.346000000     5.659000000     7.048000000
O    -4.476000000     5.171000000     7.814000000
H    -4.638000000     4.488000000     8.465000000
H    -4.497000000     4.713000000     6.974000000
O    -2.976000000    -0.080000000     8.230000000
H    -2.707000000    -0.516000000     9.039000000
H    -2.735000000    -0.694000000     7.536000000
O    -4.593000000     3.033000000     4.762000000
H    -4.789000000     2.466000000     5.507000000
H    -3.797000000     2.662000000     4.381000000
O     1.316000000     0.037000000     3.499000000
H     1.743000000     0.888000000     3.399000000
H     1.026000000    -0.191000000     2.616000000
O    -4.909000000    -2.285000000     6.679000000
H    -5.000000000    -3.236000000     6.629000000
H    -4.053000000    -2.106000000     6.289000000
O    -5.182000000     5.428000000     3.425000000
H    -5.118000000     4.507000000     3.679000000
H    -6.016000000     5.491000000     2.960000000
O     0.647000000     3.331000000     4.528000000
H     0.653000000     4.048000000     5.163000000
H    -0.197000000     3.413000000     4.083000000
O    -2.512000000    -1.071000000     5.696000000
H    -1.563000000    -1.188000000     5.668000000
H    -2.678000000    -0.319000000     5.128000000
O    -7.534000000     2.309000000     5.324000000
H    -6.823000000     2.472000000     4.704000000
H    -7.365000000     1.427000000     5.655000000
O    -4.720000000     2.426000000     9.680000000
H    -4.378000000     1.951000000     8.923000000
H    -4.172000000     2.139000000    10.411000000
O    -5.227000000     0.318000000     5.521000000
H    -4.416000000     0.459000000     5.034000000
H    -5.092000000    -0.514000000     5.976000000
O    -2.596000000     5.641000000     3.878000000
H    -3.552000000     5.668000000     3.826000000
H    -2.383000000     4.708000000     3.873000000
O    -2.636000000     2.002000000     6.726000000
H    -2.860000000     1.189000000     7.179000000
H    -2.666000000     1.774000000     5.796000000
O     0.948000000     6.358000000     5.896000000
H     0.035000000     6.089000000     5.995000000
H     1.231000000     6.578000000     6.783000000
O     4.027000000     1.878000000     6.830000000
H     3.716000000     1.967000000     7.731000000
H     3.229000000     1.873000000     6.301000000
