215
-1444.66058
C    -4.307000000    -3.117000000     1.180000000
H    -3.700000000    -4.019000000     1.155000000
C    -4.265000000    -2.178000000     0.157000000
C    -4.768000000    -0.902000000     0.360000000
H    -4.707000000    -0.038000000    -0.296000000
C    -3.428000000    -2.494000000    -1.114000000
O    -2.961000000    -3.865000000    -1.306000000
H    -2.472000000    -1.957000000    -1.022000000
O    -4.038000000    -1.942000000    -2.334000000
C    -3.220000000    -1.306000000    -3.283000000
C    -3.377000000     0.076000000    -3.338000000
H    -4.094000000     0.550000000    -2.673000000
C    -2.424000000     0.835000000    -4.041000000
O    -2.433000000     2.223000000    -3.964000000
C    -1.485000000     0.207000000    -4.825000000
C    -0.398000000     1.025000000    -5.567000000
H    -0.018000000     0.493000000    -6.442000000
C     0.747000000     1.413000000    -4.610000000
C     1.932000000     0.654000000    -4.647000000
H     1.954000000    -0.315000000    -5.139000000
H    -0.837000000     1.963000000    -5.913000000
C    -1.331000000    -1.194000000    -4.742000000
H    -0.603000000    -1.764000000    -5.314000000
C    -2.264000000    -1.943000000    -4.010000000
C    -2.037000000    -3.458000000    -3.937000000
H    -1.543000000    -3.926000000    -4.792000000
H    -2.973000000    -3.999000000    -3.784000000
C    -1.156000000    -3.854000000    -2.815000000
C     0.212000000    -4.044000000    -2.982000000
H     0.697000000    -4.034000000    -3.955000000
C    -1.642000000    -4.073000000    -1.520000000
C    -0.835000000    -4.275000000    -0.347000000
H    -1.235000000    -4.289000000     0.663000000
C     0.485000000    -4.407000000    -0.535000000
O     1.213000000    -4.548000000     0.660000000
C     2.168000000    -3.541000000     1.007000000
C     2.079000000    -3.209000000     2.513000000
C     3.191000000    -2.879000000     3.285000000
H     4.185000000    -2.669000000     2.900000000
C     0.807000000    -3.292000000     3.190000000
H    -0.075000000    -3.440000000     2.572000000
O     3.470000000    -3.803000000     0.522000000
H     1.754000000    -2.615000000     0.582000000
C     1.004000000    -4.337000000    -1.864000000
C     2.456000000    -4.478000000    -2.058000000
H     2.729000000    -5.051000000    -2.947000000
H     2.880000000    -5.251000000    -1.413000000
C     3.322000000    -3.256000000    -1.758000000
C     3.469000000    -2.324000000    -2.796000000
H     3.044000000    -2.637000000    -3.747000000
C     3.842000000    -3.015000000    -0.519000000
C     4.375000000    -1.708000000    -0.201000000
H     4.654000000    -1.443000000     0.815000000
C     4.439000000    -0.752000000    -1.204000000
O     4.851000000     0.519000000    -0.916000000
C     3.835000000     1.510000000    -0.837000000
C     3.798000000     2.240000000     0.502000000
C     4.666000000     1.923000000     1.578000000
H     5.356000000     1.085000000     1.528000000
C     2.826000000     3.182000000     0.763000000
H     2.049000000     3.408000000     0.037000000
O     3.896000000     2.417000000    -1.998000000
H     2.835000000     1.053000000    -0.893000000
C     3.982000000    -1.042000000    -2.527000000
C     4.169000000    -0.067000000    -3.671000000
H     4.331000000    -0.651000000    -4.579000000
H     5.078000000     0.479000000    -3.409000000
C     3.000000000     0.973000000    -3.815000000
C     2.941000000     2.117000000    -2.947000000
C     1.829000000     2.969000000    -3.041000000
H     1.799000000     3.803000000    -2.344000000
C     0.702000000     2.596000000    -3.818000000
O    -0.425000000     3.399000000    -3.832000000
C    -1.525000000     2.846000000    -3.093000000
H    -1.168000000     2.042000000    -2.433000000
C    -2.229000000     3.914000000    -2.292000000
C    -3.540000000     3.781000000    -1.871000000
H    -4.076000000     2.851000000    -2.045000000
C    -1.467000000     5.009000000    -1.735000000
H    -0.398000000     5.074000000    -1.918000000
C    -2.106000000     6.103000000    -1.184000000
O    -1.319000000     7.101000000    -0.712000000
C    -3.386000000     5.949000000    -0.768000000
H    -3.791000000     6.638000000    -0.032000000
C    -4.106000000     4.797000000    -1.118000000
O    -5.385000000     4.684000000    -0.594000000
C    -6.044000000     3.464000000    -0.495000000
C    -5.699000000     2.599000000     0.557000000
H    -4.771000000     2.808000000     1.083000000
C    -7.072000000     3.133000000    -1.357000000
H    -7.276000000     3.784000000    -2.203000000
C    -7.848000000     1.994000000    -1.107000000
H    -8.696000000     1.796000000    -1.758000000
C    -7.518000000     1.158000000    -0.037000000
H    -8.152000000     0.301000000     0.179000000
C    -6.417000000     1.435000000     0.788000000
O    -6.123000000     0.503000000     1.778000000
C    -5.552000000    -0.676000000     1.519000000
C    -5.754000000    -1.754000000     2.439000000
H    -6.442000000    -1.464000000     3.229000000
C    -5.071000000    -2.927000000     2.325000000
O    -5.041000000    -3.864000000     3.269000000
C    -3.849000000    -4.327000000     3.721000000
C    -2.821000000    -3.506000000     4.250000000
H    -2.938000000    -2.438000000     4.415000000
C    -3.675000000    -5.713000000     3.665000000
H    -4.397000000    -6.388000000     3.212000000
C    -2.537000000    -6.250000000     4.160000000
H    -2.412000000    -7.328000000     4.208000000
C    -1.479000000    -5.466000000     4.629000000
H    -0.583000000    -5.952000000     5.008000000
C    -1.633000000    -4.073000000     4.625000000
O    -0.543000000    -3.264000000     5.205000000
C     0.689000000    -3.114000000     4.556000000
C     1.820000000    -2.797000000     5.328000000
H     1.719000000    -2.596000000     6.391000000
C     3.086000000    -2.677000000     4.665000000
O     4.111000000    -2.196000000     5.393000000
C     5.024000000    -1.211000000     5.041000000
C     4.701000000     0.008000000     4.474000000
H     3.700000000     0.410000000     4.347000000
C     6.328000000    -1.633000000     5.172000000
H     6.597000000    -2.625000000     5.524000000
C     7.361000000    -0.779000000     4.893000000
H     8.360000000    -1.156000000     5.098000000
C     7.077000000     0.500000000     4.436000000
H     7.821000000     1.247000000     4.170000000
C     5.771000000     0.836000000     4.157000000
O     5.464000000     2.211000000     3.742000000
C     4.602000000     2.570000000     2.756000000
C     3.653000000     3.554000000     3.045000000
H     3.579000000     4.097000000     3.984000000
C     2.793000000     3.853000000     2.008000000
O     1.862000000     4.886000000     2.201000000
C     1.606000000     5.849000000     1.276000000
C     2.649000000     6.529000000     0.605000000
H     3.692000000     6.330000000     0.838000000
C     2.326000000     7.470000000    -0.343000000
H     3.149000000     7.960000000    -0.857000000
C     0.982000000     7.582000000    -0.725000000
H     0.755000000     8.337000000    -1.473000000
C    -0.064000000     6.900000000    -0.113000000
C     0.230000000     6.054000000     0.926000000
H    -0.615000000     5.550000000     1.387000000
C    -1.004000000    -0.191000000     2.325000000
H    -1.121000000    -0.857000000     3.176000000
C    -0.402000000    -0.714000000     1.165000000
H    -0.362000000    -1.794000000     1.043000000
C    -0.223000000     0.165000000     0.078000000
H     0.080000000    -0.191000000    -0.849000000
C    -0.471000000     1.506000000     0.243000000
H    -0.207000000     2.201000000    -0.551000000
C    -0.900000000     1.990000000     1.461000000
H    -1.083000000     3.062000000     1.443000000
C    -1.305000000     1.185000000     2.490000000
C    -1.900000000     1.702000000     3.822000000
O    -2.046000000     2.893000000     4.072000000
O    -2.161000000     0.830000000     4.661000000
O    -0.796000000     5.710000000     7.775000000
H     0.003000000     6.133000000     8.089000000
H    -0.544000000     5.309000000     6.943000000
O    -7.444000000     0.264000000     5.082000000
H    -7.070000000     0.894000000     4.466000000
H    -6.705000000    -0.004000000     5.628000000
O    -0.381000000     0.024000000     6.520000000
H     0.138000000     0.060000000     5.716000000
H    -1.287000000    -0.044000000     6.218000000
O    -6.363000000    -2.823000000     6.070000000
H    -6.697000000    -2.190000000     6.706000000
H    -5.601000000    -2.393000000     5.682000000
O    -7.197000000     3.688000000     6.608000000
H    -6.572000000     4.412000000     6.560000000
H    -7.015000000     3.162000000     5.830000000
O    -6.806000000     2.725000000     3.916000000
H    -5.909000000     3.058000000     3.905000000
H    -7.214000000     3.110000000     3.141000000
O    -2.633000000     2.884000000     6.570000000
H    -1.950000000     2.305000000     6.910000000
H    -2.452000000     2.942000000     5.632000000
O     2.841000000     0.208000000     6.999000000
H     2.327000000     0.178000000     6.192000000
H     2.285000000    -0.215000000     7.653000000
O     0.835000000    -1.572000000     8.626000000
H     0.516000000    -1.274000000     9.478000000
H     0.144000000    -1.326000000     8.012000000
O    -2.963000000    -2.658000000     8.155000000
H    -3.230000000    -3.468000000     7.719000000
H    -3.609000000    -2.010000000     7.873000000
O    -0.183000000     4.992000000     5.184000000
H    -0.896000000     4.449000000     4.848000000
H     0.601000000     4.455000000     5.069000000
O    -1.071000000     7.173000000     3.663000000
H    -0.695000000     6.535000000     4.270000000
H    -0.505000000     7.941000000     3.742000000
O    -3.429000000     2.313000000     9.597000000
H    -4.290000000     1.933000000     9.423000000
H    -3.484000000     3.202000000     9.248000000
O    -4.328000000    -0.686000000     5.685000000
H    -4.430000000    -0.435000000     6.603000000
H    -3.609000000    -0.141000000     5.367000000
O    -4.478000000     4.180000000     3.220000000
H    -4.410000000     5.135000000     3.228000000
H    -3.574000000     3.876000000     3.138000000
O    -3.913000000     6.887000000     3.072000000
H    -4.185000000     7.762000000     2.795000000
H    -3.004000000     6.996000000     3.351000000
O     1.307000000     0.068000000     4.327000000
H     0.675000000     0.274000000     3.638000000
H     1.814000000    -0.664000000     3.976000000
O    -3.702000000     5.009000000     7.972000000
H    -3.623000000     4.352000000     7.280000000
H    -2.800000000     5.256000000     8.173000000
O    -0.058000000     2.458000000     8.081000000
H    -0.056000000     1.681000000     7.521000000
H     0.852000000     2.753000000     8.084000000
