215
-1443.93473
C    -3.788000000    -3.705000000     1.858000000
H    -3.289000000    -4.595000000     1.485000000
C    -3.915000000    -2.627000000     0.987000000
C    -4.397000000    -1.453000000     1.532000000
H    -4.466000000    -0.542000000     0.943000000
C    -3.529000000    -2.630000000    -0.477000000
O    -3.167000000    -3.960000000    -0.956000000
H    -2.579000000    -2.082000000    -0.559000000
O    -4.480000000    -1.921000000    -1.344000000
C    -3.960000000    -1.030000000    -2.269000000
C    -4.110000000     0.291000000    -1.926000000
H    -4.570000000     0.561000000    -0.978000000
C    -3.569000000     1.213000000    -2.753000000
O    -3.708000000     2.571000000    -2.416000000
C    -2.816000000     0.819000000    -3.882000000
C    -2.240000000     1.915000000    -4.784000000
H    -2.228000000     1.562000000    -5.818000000
C    -0.872000000     2.170000000    -4.315000000
C     0.194000000     1.426000000    -4.875000000
H    -0.092000000     0.679000000    -5.611000000
H    -2.881000000     2.795000000    -4.874000000
C    -2.593000000    -0.475000000    -4.215000000
H    -1.968000000    -0.631000000    -5.091000000
C    -3.195000000    -1.474000000    -3.364000000
C    -2.998000000    -3.016000000    -3.684000000
H    -2.707000000    -3.094000000    -4.733000000
H    -3.927000000    -3.570000000    -3.532000000
C    -1.860000000    -3.673000000    -2.893000000
C    -0.618000000    -3.773000000    -3.499000000
H    -0.402000000    -3.335000000    -4.469000000
C    -1.952000000    -4.111000000    -1.551000000
C    -0.829000000    -4.369000000    -0.786000000
H    -0.946000000    -4.552000000     0.279000000
C     0.408000000    -4.445000000    -1.363000000
O     1.455000000    -4.547000000    -0.479000000
C     2.255000000    -3.411000000    -0.154000000
C     2.598000000    -3.213000000     1.337000000
C     3.842000000    -2.724000000     1.752000000
H     4.627000000    -2.449000000     1.052000000
C     1.693000000    -3.626000000     2.306000000
H     0.682000000    -3.900000000     2.014000000
O     3.430000000    -3.468000000    -0.994000000
H     1.761000000    -2.475000000    -0.452000000
C     0.508000000    -4.219000000    -2.765000000
C     1.940000000    -4.131000000    -3.379000000
H     1.922000000    -4.376000000    -4.444000000
H     2.613000000    -4.900000000    -2.994000000
C     2.620000000    -2.814000000    -3.250000000
C     2.224000000    -1.690000000    -4.021000000
H     1.593000000    -1.829000000    -4.895000000
C     3.445000000    -2.582000000    -2.084000000
C     4.053000000    -1.343000000    -1.848000000
H     4.671000000    -1.247000000    -0.959000000
C     3.761000000    -0.319000000    -2.699000000
O     4.321000000     0.911000000    -2.464000000
C     3.488000000     1.858000000    -1.751000000
C     4.123000000     2.516000000    -0.573000000
C     5.296000000     2.100000000     0.125000000
H     5.850000000     1.239000000    -0.240000000
C     3.455000000     3.584000000    -0.002000000
H     2.580000000     3.922000000    -0.552000000
O     2.934000000     2.782000000    -2.722000000
H     2.608000000     1.334000000    -1.349000000
C     2.895000000    -0.459000000    -3.815000000
C     2.648000000     0.679000000    -4.829000000
H     2.435000000     0.346000000    -5.847000000
H     3.568000000     1.268000000    -4.851000000
C     1.483000000     1.622000000    -4.317000000
C     1.700000000     2.564000000    -3.284000000
C     0.586000000     3.294000000    -2.807000000
H     0.761000000     4.094000000    -2.093000000
C    -0.654000000     3.091000000    -3.321000000
O    -1.647000000     3.788000000    -2.724000000
C    -2.490000000     3.070000000    -1.725000000
H    -1.935000000     2.211000000    -1.320000000
C    -2.941000000     3.970000000    -0.553000000
C    -4.096000000     3.763000000     0.098000000
H    -4.806000000     2.996000000    -0.201000000
C    -2.014000000     4.984000000    -0.152000000
H    -1.056000000     4.953000000    -0.663000000
C    -2.308000000     5.712000000     0.977000000
O    -1.423000000     6.743000000     1.453000000
C    -3.513000000     5.484000000     1.650000000
H    -3.780000000     6.161000000     2.457000000
C    -4.442000000     4.516000000     1.235000000
O    -5.675000000     4.290000000     1.846000000
C    -6.141000000     2.986000000     2.015000000
C    -5.336000000     1.953000000     2.511000000
H    -4.337000000     2.233000000     2.833000000
C    -7.449000000     2.662000000     1.688000000
H    -8.071000000     3.449000000     1.268000000
C    -8.009000000     1.357000000     1.873000000
H    -9.049000000     1.139000000     1.640000000
C    -7.211000000     0.424000000     2.514000000
H    -7.581000000    -0.583000000     2.694000000
C    -5.848000000     0.693000000     2.741000000
O    -5.231000000    -0.327000000     3.449000000
C    -4.728000000    -1.487000000     2.877000000
C    -4.642000000    -2.558000000     3.704000000
H    -4.869000000    -2.406000000     4.756000000
C    -4.142000000    -3.712000000     3.201000000
O    -3.827000000    -4.771000000     4.052000000
C    -2.500000000    -5.147000000     4.135000000
C    -1.497000000    -4.222000000     4.471000000
H    -1.735000000    -3.177000000     4.650000000
C    -2.201000000    -6.493000000     3.892000000
H    -3.062000000    -7.140000000     3.744000000
C    -0.861000000    -6.875000000     3.873000000
H    -0.651000000    -7.936000000     3.767000000
C     0.185000000    -5.946000000     4.057000000
H     1.192000000    -6.348000000     3.982000000
C    -0.147000000    -4.609000000     4.373000000
O     0.880000000    -3.725000000     4.652000000
C     1.871000000    -3.354000000     3.689000000
C     3.112000000    -2.842000000     4.024000000
H     3.304000000    -2.950000000     5.089000000
C     4.087000000    -2.475000000     3.079000000
O     5.349000000    -2.279000000     3.477000000
C     6.264000000    -1.349000000     2.984000000
C     5.954000000    -0.048000000     2.674000000
H     4.970000000     0.354000000     2.898000000
C     7.569000000    -1.786000000     2.762000000
H     7.844000000    -2.829000000     2.893000000
C     8.515000000    -0.964000000     2.151000000
H     9.423000000    -1.461000000     1.818000000
C     8.220000000     0.346000000     1.890000000
H     8.937000000     1.038000000     1.456000000
C     6.974000000     0.773000000     2.127000000
O     6.778000000     2.115000000     1.998000000
C     5.689000000     2.629000000     1.368000000
C     4.933000000     3.619000000     1.921000000
H     5.235000000     4.031000000     2.880000000
C     3.844000000     4.049000000     1.229000000
O     2.988000000     4.864000000     1.910000000
C     2.134000000     5.710000000     1.243000000
C     2.606000000     6.608000000     0.283000000
H     3.669000000     6.551000000     0.067000000
C     1.693000000     7.574000000    -0.233000000
H     2.089000000     8.253000000    -0.984000000
C     0.382000000     7.595000000     0.147000000
H    -0.257000000     8.337000000    -0.323000000
C    -0.094000000     6.709000000     1.106000000
C     0.738000000     5.711000000     1.675000000
H     0.386000000     5.023000000     2.440000000
C    -0.853000000     0.019000000     2.279000000
H    -1.183000000    -0.615000000     3.098000000
C    -0.775000000    -0.469000000     0.992000000
H    -1.005000000    -1.459000000     0.607000000
C    -0.133000000     0.304000000    -0.004000000
H     0.118000000     0.044000000    -1.051000000
C     0.256000000     1.584000000     0.279000000
H     0.850000000     2.169000000    -0.420000000
C     0.041000000     2.082000000     1.554000000
H     0.410000000     3.091000000     1.722000000
C    -0.548000000     1.330000000     2.531000000
C    -0.674000000     1.786000000     3.931000000
O    -0.039000000     2.739000000     4.372000000
O    -1.061000000     1.044000000     4.841000000
O     2.417000000     1.105000000     4.189000000
H     2.814000000     1.845000000     4.648000000
H     1.610000000     1.461000000     3.815000000
O     3.706000000     0.628000000     7.892000000
H     4.199000000     1.370000000     8.241000000
H     3.218000000     0.991000000     7.153000000
O    -5.836000000     2.936000000     6.257000000
H    -5.060000000     2.617000000     5.796000000
H    -6.550000000     2.827000000     5.630000000
O    -5.100000000     0.012000000     7.673000000
H    -5.839000000     0.411000000     8.132000000
H    -4.543000000     0.750000000     7.428000000
O     1.997000000     6.271000000     7.439000000
H     2.946000000     6.397000000     7.419000000
H     1.870000000     5.362000000     7.167000000
O    -3.161000000     3.075000000     5.083000000
H    -2.457000000     3.704000000     5.242000000
H    -2.710000000     2.262000000     4.858000000
O     1.099000000     1.091000000     9.513000000
H     1.466000000     1.587000000     8.781000000
H     1.758000000     0.423000000     9.703000000
O     0.726000000    -0.556000000     5.687000000
H     1.474000000    -0.236000000     5.183000000
H    -0.028000000    -0.099000000     5.315000000
O     0.992000000    -2.120000000     8.018000000
H     0.976000000    -1.667000000     7.175000000
H     1.867000000    -1.949000000     8.365000000
O     3.928000000     5.875000000     4.616000000
H     3.779000000     6.779000000     4.895000000
H     3.055000000     5.483000000     4.598000000
O    -0.326000000     6.887000000     4.670000000
H    -1.274000000     6.953000000     4.792000000
H    -0.168000000     7.275000000     3.809000000
O     3.917000000     3.079000000     5.224000000
H     4.094000000     3.844000000     4.677000000
H     4.781000000     2.792000000     5.521000000
O     1.438000000     4.771000000     4.760000000
H     0.793000000     5.477000000     4.805000000
H     0.972000000     4.049000000     4.339000000
O    -5.400000000     5.588000000     5.522000000
H    -5.091000000     4.693000000     5.660000000
H    -6.318000000     5.488000000     5.271000000
O     2.086000000     3.025000000     7.385000000
H     2.957000000     3.300000000     7.099000000
H     1.552000000     3.055000000     6.591000000
O    -2.066000000     0.776000000     7.280000000
H    -1.249000000     0.416000000     7.625000000
H    -1.938000000     0.796000000     6.332000000
O    -2.914000000     6.948000000     5.050000000
H    -3.197000000     7.753000000     4.616000000
H    -3.728000000     6.527000000     5.327000000
O    -0.810000000     3.418000000     6.935000000
H    -0.298000000     3.311000000     6.134000000
H    -1.261000000     2.581000000     7.045000000
O    -0.757000000     6.041000000     8.066000000
H    -0.807000000     5.086000000     8.023000000
H     0.007000000     6.266000000     7.535000000
