215
-1449.88585
C    -4.017000000     3.775000000    -1.865000000
H    -3.569000000     3.688000000    -2.852000000
C    -3.185000000     4.153000000    -0.833000000
C    -3.751000000     4.403000000     0.470000000
H    -3.142000000     4.625000000     1.343000000
C    -1.703000000     4.058000000    -1.067000000
O    -1.316000000     4.349000000    -2.391000000
H    -1.349000000     3.048000000    -0.814000000
O    -1.124000000     5.012000000    -0.127000000
C     0.228000000     4.742000000     0.363000000
C     0.383000000     4.443000000     1.700000000
H    -0.453000000     4.426000000     2.395000000
C     1.529000000     3.859000000     2.156000000
O     1.433000000     3.223000000     3.407000000
C     2.698000000     3.837000000     1.366000000
C     4.053000000     3.357000000     1.822000000
H     4.747000000     3.944000000     1.216000000
C     4.179000000     1.805000000     1.654000000
C     4.915000000     1.233000000     0.606000000
H     5.375000000     1.881000000    -0.136000000
H     4.166000000     3.742000000     2.837000000
C     2.574000000     4.409000000     0.099000000
H     3.400000000     4.522000000    -0.598000000
C     1.342000000     4.705000000    -0.458000000
C     1.352000000     5.054000000    -1.891000000
H     2.299000000     5.478000000    -2.233000000
H     0.647000000     5.868000000    -2.075000000
C     0.960000000     3.895000000    -2.778000000
C     1.945000000     3.003000000    -3.327000000
H     2.993000000     3.197000000    -3.114000000
C    -0.384000000     3.625000000    -3.023000000
C    -0.795000000     2.536000000    -3.785000000
H    -1.824000000     2.425000000    -4.117000000
C     0.211000000     1.639000000    -4.217000000
O    -0.194000000     0.405000000    -4.738000000
C     0.139000000    -0.795000000    -3.980000000
C    -1.068000000    -1.654000000    -3.735000000
C    -0.965000000    -3.048000000    -3.730000000
H    -0.019000000    -3.554000000    -3.903000000
C    -2.347000000    -1.041000000    -3.515000000
H    -2.556000000     0.020000000    -3.406000000
O     1.270000000    -1.568000000    -4.474000000
H     0.473000000    -0.533000000    -2.965000000
C     1.599000000     1.898000000    -4.078000000
C     2.651000000     0.984000000    -4.616000000
H     3.453000000     1.689000000    -4.848000000
H     2.354000000     0.659000000    -5.615000000
C     3.104000000    -0.143000000    -3.693000000
C     4.177000000    -0.003000000    -2.837000000
H     4.528000000     1.009000000    -2.656000000
C     2.428000000    -1.359000000    -3.694000000
C     2.747000000    -2.334000000    -2.777000000
H     2.176000000    -3.255000000    -2.691000000
C     3.839000000    -2.196000000    -1.993000000
O     4.026000000    -3.133000000    -1.018000000
C     3.395000000    -2.873000000     0.269000000
C     2.726000000    -4.136000000     0.818000000
C     2.089000000    -5.096000000    -0.022000000
H     2.121000000    -4.975000000    -1.101000000
C     2.554000000    -4.174000000     2.182000000
H     2.803000000    -3.350000000     2.848000000
O     4.464000000    -2.336000000     1.167000000
H     2.638000000    -2.089000000     0.118000000
C     4.558000000    -0.993000000    -1.958000000
C     5.568000000    -0.675000000    -0.825000000
H     6.228000000     0.122000000    -1.175000000
H     6.231000000    -1.497000000    -0.551000000
C     4.983000000    -0.145000000     0.421000000
C     4.455000000    -0.941000000     1.440000000
C     3.843000000    -0.358000000     2.601000000
H     3.297000000    -0.883000000     3.381000000
C     3.790000000     0.995000000     2.693000000
O     2.988000000     1.445000000     3.772000000
C     1.597000000     1.811000000     3.415000000
H     1.498000000     1.452000000     2.380000000
C     0.521000000     1.170000000     4.228000000
C    -0.806000000     1.650000000     4.095000000
H    -0.945000000     2.484000000     3.412000000
C     0.826000000     0.009000000     4.984000000
H     1.830000000    -0.390000000     5.104000000
C    -0.264000000    -0.692000000     5.452000000
O    -0.039000000    -1.775000000     6.244000000
C    -1.564000000    -0.199000000     5.377000000
H    -2.432000000    -0.725000000     5.767000000
C    -1.817000000     0.998000000     4.731000000
O    -3.158000000     1.362000000     4.638000000
C    -3.681000000     2.642000000     4.448000000
C    -4.518000000     2.961000000     3.357000000
H    -4.440000000     2.298000000     2.498000000
C    -3.407000000     3.694000000     5.314000000
H    -2.809000000     3.519000000     6.205000000
C    -3.937000000     4.987000000     5.140000000
H    -3.639000000     5.672000000     5.931000000
C    -4.813000000     5.210000000     4.096000000
H    -5.199000000     6.213000000     3.934000000
C    -5.017000000     4.252000000     3.111000000
O    -5.706000000     4.571000000     1.918000000
C    -5.135000000     4.287000000     0.690000000
C    -5.938000000     3.813000000    -0.359000000
H    -7.001000000     3.717000000    -0.148000000
C    -5.409000000     3.641000000    -1.604000000
O    -6.228000000     3.349000000    -2.645000000
C    -5.930000000     2.274000000    -3.402000000
C    -5.695000000     0.955000000    -2.919000000
H    -5.818000000     0.897000000    -1.840000000
C    -5.763000000     2.475000000    -4.801000000
H    -6.011000000     3.457000000    -5.196000000
C    -5.459000000     1.401000000    -5.632000000
H    -5.408000000     1.591000000    -6.701000000
C    -5.052000000     0.128000000    -5.114000000
H    -4.741000000    -0.743000000    -5.686000000
C    -5.172000000    -0.074000000    -3.726000000
O    -4.754000000    -1.264000000    -3.143000000
C    -3.464000000    -1.816000000    -3.242000000
C    -3.371000000    -3.219000000    -3.301000000
H    -4.294000000    -3.766000000    -3.127000000
C    -2.096000000    -3.772000000    -3.497000000
O    -2.086000000    -5.177000000    -3.548000000
C    -1.043000000    -6.056000000    -3.242000000
C    -0.550000000    -6.007000000    -1.957000000
H    -1.008000000    -5.332000000    -1.239000000
C    -0.581000000    -6.971000000    -4.193000000
H    -0.966000000    -6.851000000    -5.203000000
C     0.386000000    -7.870000000    -3.828000000
H     0.883000000    -8.456000000    -4.596000000
C     0.808000000    -7.943000000    -2.485000000
H     1.596000000    -8.566000000    -2.071000000
C     0.388000000    -6.995000000    -1.552000000
O     0.809000000    -7.086000000    -0.192000000
C     1.523000000    -6.193000000     0.570000000
C     1.487000000    -6.350000000     1.945000000
H     1.000000000    -7.221000000     2.377000000
C     1.988000000    -5.336000000     2.724000000
O     1.740000000    -5.455000000     4.034000000
C     1.924000000    -4.455000000     5.040000000
C     3.121000000    -4.337000000     5.759000000
H     3.912000000    -5.080000000     5.688000000
C     3.317000000    -3.369000000     6.706000000
H     4.262000000    -3.263000000     7.233000000
C     2.264000000    -2.452000000     6.868000000
H     2.377000000    -1.639000000     7.581000000
C     1.012000000    -2.632000000     6.198000000
C     0.801000000    -3.681000000     5.333000000
H    -0.125000000    -3.755000000     4.767000000
C    -1.023000000    -2.443000000     0.230000000
H    -0.873000000    -3.519000000     0.264000000
C     0.007000000    -1.651000000    -0.277000000
H     0.790000000    -2.213000000    -0.779000000
C    -0.048000000    -0.254000000    -0.213000000
H     0.795000000     0.437000000    -0.593000000
C    -1.108000000     0.354000000     0.509000000
H    -1.153000000     1.409000000     0.766000000
C    -2.113000000    -0.466000000     1.055000000
H    -2.906000000    -0.019000000     1.651000000
C    -2.039000000    -1.885000000     0.949000000
C    -3.120000000    -2.761000000     1.497000000
O    -3.970000000    -2.372000000     2.221000000
O    -3.196000000    -3.908000000     1.262000000
O    -5.942000000    -6.060000000     1.930000000
H    -5.463000000    -6.032000000     1.102000000
H    -5.924000000    -5.157000000     2.248000000
O    -6.046000000    -8.824000000     1.194000000
H    -6.843000000    -8.575000000     0.726000000
H    -5.731000000    -8.007000000     1.581000000
O    -3.587000000    -3.158000000     4.821000000
H    -2.931000000    -3.854000000     4.857000000
H    -3.682000000    -2.967000000     3.888000000
O    -7.939000000     1.216000000     2.822000000
H    -7.884000000     0.444000000     2.260000000
H    -7.036000000     1.527000000     2.890000000
O    -5.153000000    -2.486000000     7.152000000
H    -4.520000000    -2.621000000     6.446000000
H    -5.913000000    -2.095000000     6.720000000
O    -1.197000000    -6.805000000     5.807000000
H    -1.501000000    -6.205000000     5.126000000
H    -1.896000000    -7.455000000     5.883000000
O    -6.656000000    -5.970000000    -2.291000000
H    -6.905000000    -5.058000000    -2.140000000
H    -7.078000000    -6.454000000    -1.581000000
O    -5.441000000    -3.456000000    -0.225000000
H    -6.076000000    -3.060000000     0.372000000
H    -4.650000000    -3.561000000     0.302000000
O    -5.084000000    -6.959000000     4.604000000
H    -5.395000000    -6.879000000     3.702000000
H    -5.806000000    -6.624000000     5.136000000
O    -6.056000000    -3.807000000     3.383000000
H    -5.722000000    -4.258000000     4.158000000
H    -5.321000000    -3.274000000     3.080000000
O    -3.796000000    -5.963000000    -0.172000000
H    -4.044000000    -5.587000000    -1.017000000
H    -3.480000000    -5.218000000     0.338000000
O    -7.743000000    -2.792000000     1.329000000
H    -7.573000000    -2.900000000     2.265000000
H    -8.637000000    -3.112000000     1.210000000
O    -2.292000000    -5.506000000     3.537000000
H    -2.753000000    -6.314000000     3.314000000
H    -2.453000000    -4.925000000     2.794000000
O    -6.717000000    -0.388000000     0.621000000
H    -6.157000000    -0.253000000     1.385000000
H    -7.166000000    -1.214000000     0.796000000
O    -5.405000000    -0.187000000     2.934000000
H    -4.720000000     0.232000000     3.454000000
H    -4.988000000    -0.970000000     2.575000000
O    -7.173000000    -2.728000000    -2.518000000
H    -6.948000000    -1.869000000    -2.875000000
H    -6.524000000    -2.879000000    -1.831000000
O    -2.802000000    -8.572000000    -0.232000000
H    -3.060000000    -7.652000000    -0.176000000
H    -3.080000000    -8.845000000    -1.106000000
O    -3.020000000    -8.421000000     2.819000000
H    -2.757000000    -8.318000000     1.904000000
H    -3.906000000    -8.781000000     2.774000000
O    -6.940000000    -1.197000000     5.497000000
H    -6.513000000    -0.970000000     4.671000000
H    -7.713000000    -1.698000000     5.237000000
