215
-1445.14771
C    -4.202000000    -3.662000000    -0.030000000
H    -3.553000000    -4.432000000    -0.438000000
C    -4.269000000    -2.377000000    -0.678000000
C    -5.215000000    -1.446000000    -0.247000000
H    -5.169000000    -0.445000000    -0.669000000
C    -3.407000000    -1.988000000    -1.919000000
O    -3.062000000    -3.197000000    -2.654000000
H    -2.535000000    -1.378000000    -1.639000000
O    -4.127000000    -1.138000000    -2.788000000
C    -3.424000000    -0.033000000    -3.288000000
C    -3.452000000     1.159000000    -2.546000000
H    -4.055000000     1.132000000    -1.642000000
C    -2.680000000     2.248000000    -3.003000000
O    -2.811000000     3.395000000    -2.175000000
C    -1.846000000     2.136000000    -4.106000000
C    -1.014000000     3.341000000    -4.521000000
H    -0.762000000     3.385000000    -5.582000000
C     0.246000000     3.450000000    -3.680000000
C     1.406000000     2.692000000    -4.069000000
H     1.281000000     2.013000000    -4.909000000
H    -1.697000000     4.185000000    -4.410000000
C    -1.726000000     0.883000000    -4.773000000
H    -1.006000000     0.802000000    -5.584000000
C    -2.496000000    -0.243000000    -4.361000000
C    -2.302000000    -1.619000000    -4.973000000
H    -1.931000000    -1.388000000    -5.974000000
H    -3.248000000    -2.142000000    -5.128000000
C    -1.332000000    -2.462000000    -4.195000000
C     0.018000000    -2.464000000    -4.517000000
H     0.393000000    -1.946000000    -5.396000000
C    -1.722000000    -3.169000000    -3.030000000
C    -0.846000000    -3.998000000    -2.308000000
H    -1.108000000    -4.617000000    -1.454000000
C     0.521000000    -3.912000000    -2.674000000
O     1.478000000    -4.494000000    -1.756000000
C     2.036000000    -3.554000000    -0.845000000
C     2.005000000    -4.037000000     0.582000000
C     3.231000000    -4.186000000     1.304000000
H     4.129000000    -3.713000000     0.915000000
C     0.783000000    -4.286000000     1.248000000
H    -0.182000000    -4.071000000     0.797000000
O     3.374000000    -3.276000000    -1.366000000
H     1.390000000    -2.669000000    -0.944000000
C     0.946000000    -3.185000000    -3.774000000
C     2.459000000    -3.091000000    -4.125000000
H     2.723000000    -2.958000000    -5.176000000
H     2.917000000    -4.041000000    -3.842000000
C     3.102000000    -1.974000000    -3.326000000
C     3.293000000    -0.710000000    -3.910000000
H     2.857000000    -0.541000000    -4.891000000
C     3.652000000    -2.097000000    -2.005000000
C     4.303000000    -1.079000000    -1.354000000
H     4.850000000    -1.259000000    -0.432000000
C     4.310000000     0.140000000    -1.954000000
O     4.647000000     1.196000000    -1.103000000
C     3.692000000     1.945000000    -0.465000000
C     3.941000000     2.147000000     1.080000000
C     4.324000000     0.992000000     1.837000000
H     4.386000000     0.101000000     1.218000000
C     3.692000000     3.387000000     1.708000000
H     3.319000000     4.243000000     1.151000000
O     3.540000000     3.238000000    -1.171000000
H     2.701000000     1.472000000    -0.529000000
C     3.719000000     0.377000000    -3.175000000
C     3.756000000     1.745000000    -3.787000000
H     3.607000000     1.682000000    -4.867000000
H     4.706000000     2.231000000    -3.554000000
C     2.528000000     2.619000000    -3.256000000
C     2.564000000     3.396000000    -2.078000000
C     1.492000000     4.120000000    -1.684000000
H     1.429000000     4.748000000    -0.799000000
C     0.334000000     4.137000000    -2.459000000
O    -0.830000000     4.618000000    -1.940000000
C    -1.706000000     3.698000000    -1.272000000
H    -1.136000000     2.803000000    -0.982000000
C    -2.173000000     4.197000000     0.110000000
C    -3.190000000     3.582000000     0.752000000
H    -3.537000000     2.702000000     0.217000000
C    -1.389000000     5.083000000     0.924000000
H    -0.492000000     5.525000000     0.498000000
C    -1.624000000     5.293000000     2.256000000
O    -0.909000000     6.150000000     3.035000000
C    -2.632000000     4.614000000     2.867000000
H    -2.837000000     4.768000000     3.923000000
C    -3.417000000     3.782000000     2.131000000
O    -4.295000000     2.950000000     2.823000000
C    -5.487000000     2.485000000     2.252000000
C    -5.607000000     1.138000000     1.998000000
H    -4.781000000     0.458000000     2.188000000
C    -6.529000000     3.341000000     1.998000000
H    -6.455000000     4.402000000     2.220000000
C    -7.711000000     2.828000000     1.472000000
H    -8.506000000     3.542000000     1.272000000
C    -7.936000000     1.485000000     1.198000000
H    -8.886000000     1.155000000     0.785000000
C    -6.849000000     0.640000000     1.487000000
O    -7.049000000    -0.739000000     1.179000000
C    -6.066000000    -1.639000000     0.837000000
C    -5.979000000    -2.839000000     1.468000000
H    -6.528000000    -3.059000000     2.380000000
C    -5.028000000    -3.832000000     1.085000000
O    -4.922000000    -4.947000000     1.821000000
C    -3.772000000    -5.680000000     1.882000000
C    -2.605000000    -5.131000000     2.465000000
H    -2.646000000    -4.176000000     2.982000000
C    -3.635000000    -6.844000000     1.159000000
H    -4.487000000    -7.248000000     0.618000000
C    -2.510000000    -7.663000000     1.366000000
H    -2.521000000    -8.678000000     0.978000000
C    -1.356000000    -7.076000000     1.907000000
H    -0.492000000    -7.729000000     2.002000000
C    -1.440000000    -5.838000000     2.479000000
O    -0.362000000    -5.310000000     3.129000000
C     0.842000000    -4.955000000     2.490000000
C     2.022000000    -5.141000000     3.192000000
H     2.082000000    -5.619000000     4.167000000
C     3.235000000    -4.655000000     2.587000000
O     4.433000000    -4.553000000     3.253000000
C     5.211000000    -3.428000000     3.346000000
C     4.634000000    -2.197000000     3.705000000
H     3.581000000    -2.212000000     3.975000000
C     6.582000000    -3.433000000     3.099000000
H     6.968000000    -4.408000000     2.812000000
C     7.331000000    -2.230000000     3.219000000
H     8.374000000    -2.073000000     2.954000000
C     6.714000000    -1.035000000     3.557000000
H     7.327000000    -0.140000000     3.630000000
C     5.379000000    -0.972000000     3.729000000
O     4.720000000     0.113000000     4.166000000
C     4.475000000     1.150000000     3.256000000
C     4.190000000     2.363000000     3.879000000
H     4.346000000     2.436000000     4.952000000
C     3.818000000     3.435000000     3.101000000
O     3.555000000     4.615000000     3.848000000
C     2.757000000     5.636000000     3.448000000
C     3.202000000     6.890000000     3.369000000
H     4.260000000     7.124000000     3.454000000
C     2.343000000     7.945000000     3.038000000
H     2.729000000     8.942000000     2.843000000
C     0.983000000     7.676000000     2.791000000
H     0.247000000     8.460000000     2.636000000
C     0.505000000     6.355000000     2.995000000
C     1.418000000     5.334000000     3.275000000
H     1.166000000     4.297000000     3.477000000
C    -1.281000000    -1.100000000     2.022000000
H    -1.677000000    -2.034000000     2.412000000
C    -0.696000000    -1.049000000     0.741000000
H    -0.909000000    -1.903000000     0.104000000
C    -0.098000000     0.086000000     0.174000000
H     0.320000000     0.202000000    -0.886000000
C     0.077000000     1.142000000     1.063000000
H     0.620000000     2.046000000     0.799000000
C    -0.422000000     1.102000000     2.363000000
H    -0.245000000     1.969000000     2.993000000
C    -1.084000000    -0.007000000     2.824000000
C    -1.455000000    -0.054000000     4.245000000
O    -1.333000000     0.976000000     4.918000000
O    -1.985000000    -0.982000000     4.825000000
O     1.910000000    -0.064000000     4.674000000
H     2.817000000    -0.240000000     4.423000000
H     1.923000000     0.836000000     4.999000000
O    -7.548000000     2.069000000     5.079000000
H    -6.764000000     2.185000000     4.543000000
H    -7.959000000     1.277000000     4.733000000
O     1.047000000    -1.803000000     7.861000000
H     1.089000000    -2.253000000     7.016000000
H     1.887000000    -1.350000000     7.933000000
O    -4.313000000    -2.932000000     9.743000000
H    -3.965000000    -2.241000000     9.180000000
H    -4.111000000    -2.642000000    10.632000000
O    -2.898000000    -3.156000000     6.127000000
H    -2.111000000    -3.627000000     6.402000000
H    -2.568000000    -2.350000000     5.730000000
O    -3.855000000     1.502000000     6.157000000
H    -4.427000000     1.023000000     5.559000000
H    -3.209000000     0.856000000     6.441000000
O    -0.799000000    -1.985000000    10.145000000
H    -1.377000000    -2.739000000    10.260000000
H    -0.234000000    -2.226000000     9.411000000
O     0.370000000    -2.245000000     5.121000000
H    -0.524000000    -1.907000000     5.071000000
H     0.925000000    -1.471000000     5.022000000
O    -0.606000000    -4.353000000     6.795000000
H     0.151000000    -4.339000000     7.380000000
H    -0.262000000    -4.059000000     5.951000000
O     2.949000000     2.597000000     7.846000000
H     2.920000000     1.731000000     8.252000000
H     2.640000000     2.454000000     6.952000000
O    -4.709000000    -1.263000000     4.628000000
H    -4.718000000    -2.040000000     5.187000000
H    -3.781000000    -1.109000000     4.448000000
O    -4.270000000     2.507000000     8.575000000
H    -3.993000000     2.174000000     7.721000000
H    -5.159000000     2.172000000     8.686000000
O    -7.363000000    -0.611000000     4.134000000
H    -7.646000000    -1.211000000     3.445000000
H    -6.446000000    -0.836000000     4.288000000
O     0.246000000     5.062000000     6.339000000
H     0.263000000     5.816000000     5.749000000
H    -0.643000000     4.715000000     6.257000000
O    -2.271000000     0.937000000     9.665000000
H    -1.852000000     0.611000000     8.868000000
H    -3.116000000     1.276000000     9.371000000
O     1.462000000     2.453000000     5.525000000
H     1.289000000     3.392000000     5.602000000
H     0.597000000     2.047000000     5.556000000
O    -4.958000000    -3.908000000     7.533000000
H    -4.758000000    -3.361000000     8.293000000
H    -4.316000000    -3.646000000     6.873000000
O    -2.214000000     4.200000000     6.172000000
H    -2.927000000     4.290000000     5.539000000
H    -2.139000000     3.256000000     6.315000000
O    -1.063000000     0.231000000     7.386000000
H    -0.304000000    -0.352000000     7.356000000
H    -1.242000000     0.439000000     6.469000000
