215
-1450.01884
C    -2.398000000    -4.297000000     1.933000000
H    -1.426000000    -4.728000000     1.706000000
C    -3.133000000    -3.694000000     0.908000000
C    -4.355000000    -3.076000000     1.261000000
H    -4.904000000    -2.466000000     0.548000000
C    -2.433000000    -3.608000000    -0.508000000
O    -1.668000000    -4.699000000    -0.849000000
H    -1.875000000    -2.660000000    -0.485000000
O    -3.488000000    -3.393000000    -1.471000000
C    -3.305000000    -2.469000000    -2.449000000
C    -3.942000000    -1.237000000    -2.234000000
H    -4.637000000    -1.234000000    -1.399000000
C    -3.571000000    -0.128000000    -2.944000000
O    -4.059000000     1.046000000    -2.411000000
C    -2.634000000    -0.353000000    -3.998000000
C    -2.276000000     0.817000000    -4.982000000
H    -2.089000000     0.406000000    -5.977000000
C    -1.175000000     1.683000000    -4.457000000
C     0.134000000     1.342000000    -4.837000000
H     0.409000000     0.575000000    -5.557000000
H    -3.109000000     1.480000000    -5.221000000
C    -2.060000000    -1.622000000    -4.216000000
H    -1.332000000    -1.792000000    -5.004000000
C    -2.381000000    -2.759000000    -3.513000000
C    -1.693000000    -4.106000000    -3.711000000
H    -1.411000000    -4.212000000    -4.761000000
H    -2.425000000    -4.888000000    -3.497000000
C    -0.432000000    -4.124000000    -2.806000000
C     0.688000000    -3.547000000    -3.388000000
H     0.655000000    -3.341000000    -4.455000000
C    -0.471000000    -4.471000000    -1.470000000
C     0.651000000    -4.312000000    -0.704000000
H     0.503000000    -4.516000000     0.354000000
C     1.866000000    -3.943000000    -1.351000000
O     2.968000000    -3.909000000    -0.540000000
C     3.426000000    -2.547000000    -0.170000000
C     3.636000000    -2.370000000     1.333000000
C     4.322000000    -1.264000000     1.894000000
H     4.742000000    -0.446000000     1.314000000
C     3.024000000    -3.261000000     2.236000000
H     2.410000000    -4.102000000     1.927000000
O     4.507000000    -2.097000000    -1.004000000
H     2.586000000    -1.847000000    -0.284000000
C     1.911000000    -3.570000000    -2.683000000
C     3.118000000    -3.197000000    -3.428000000
H     2.931000000    -3.393000000    -4.486000000
H     4.001000000    -3.805000000    -3.217000000
C     3.484000000    -1.724000000    -3.238000000
C     2.970000000    -0.709000000    -4.069000000
H     2.311000000    -0.964000000    -4.896000000
C     4.184000000    -1.321000000    -2.085000000
C     4.374000000     0.037000000    -1.817000000
H     4.824000000     0.333000000    -0.873000000
C     3.798000000     0.979000000    -2.641000000
O     3.887000000     2.349000000    -2.300000000
C     2.703000000     2.938000000    -1.629000000
C     3.008000000     3.745000000    -0.354000000
C     4.295000000     3.774000000     0.120000000
H     5.117000000     3.424000000    -0.500000000
C     2.025000000     4.384000000     0.387000000
H     1.011000000     4.288000000     0.007000000
O     1.956000000     3.754000000    -2.602000000
H     1.995000000     2.171000000    -1.280000000
C     3.131000000     0.644000000    -3.798000000
C     2.556000000     1.647000000    -4.741000000
H     2.564000000     1.152000000    -5.714000000
H     3.178000000     2.533000000    -4.884000000
C     1.161000000     2.133000000    -4.268000000
C     0.954000000     3.136000000    -3.300000000
C    -0.347000000     3.451000000    -2.871000000
H    -0.571000000     4.197000000    -2.113000000
C    -1.413000000     2.690000000    -3.448000000
O    -2.658000000     2.958000000    -2.835000000
C    -3.131000000     2.018000000    -1.856000000
H    -2.258000000     1.482000000    -1.456000000
C    -3.678000000     2.751000000    -0.640000000
C    -4.651000000     2.079000000     0.168000000
H    -4.844000000     1.021000000     0.009000000
C    -3.238000000     4.054000000    -0.349000000
H    -2.494000000     4.611000000    -0.913000000
C    -3.849000000     4.755000000     0.766000000
O    -3.381000000     6.046000000     1.010000000
C    -4.717000000     4.093000000     1.602000000
H    -5.090000000     4.511000000     2.533000000
C    -5.113000000     2.766000000     1.357000000
O    -6.118000000     2.264000000     2.104000000
C    -6.617000000     1.006000000     2.133000000
C    -5.905000000    -0.097000000     2.521000000
H    -4.915000000    -0.047000000     2.967000000
C    -8.000000000     0.853000000     1.740000000
H    -8.492000000     1.725000000     1.317000000
C    -8.659000000    -0.404000000     1.855000000
H    -9.737000000    -0.469000000     1.726000000
C    -7.931000000    -1.501000000     2.257000000
H    -8.382000000    -2.484000000     2.362000000
C    -6.588000000    -1.337000000     2.544000000
O    -6.026000000    -2.496000000     3.042000000
C    -4.824000000    -3.141000000     2.579000000
C    -4.161000000    -3.863000000     3.514000000
H    -4.491000000    -3.913000000     4.548000000
C    -2.941000000    -4.438000000     3.210000000
O    -2.163000000    -5.152000000     4.108000000
C    -0.852000000    -5.417000000     4.012000000
C     0.030000000    -4.395000000     4.370000000
H    -0.329000000    -3.443000000     4.750000000
C    -0.406000000    -6.666000000     3.620000000
H    -1.146000000    -7.416000000     3.353000000
C     0.962000000    -6.962000000     3.414000000
H     1.315000000    -7.929000000     3.064000000
C     1.815000000    -5.866000000     3.672000000
H     2.875000000    -6.095000000     3.747000000
C     1.415000000    -4.685000000     4.243000000
O     2.393000000    -3.844000000     4.559000000
C     3.104000000    -3.115000000     3.635000000
C     3.807000000    -2.020000000     4.090000000
H     3.910000000    -1.947000000     5.170000000
C     4.395000000    -1.032000000     3.314000000
O     4.922000000     0.058000000     3.925000000
C     5.814000000     0.830000000     3.258000000
C     5.398000000     2.048000000     2.769000000
H     4.380000000     2.398000000     2.923000000
C     7.110000000     0.431000000     3.135000000
H     7.400000000    -0.577000000     3.419000000
C     8.068000000     1.258000000     2.493000000
H     9.097000000     0.905000000     2.501000000
C     7.624000000     2.497000000     1.993000000
H     8.364000000     3.115000000     1.490000000
C     6.316000000     2.878000000     2.151000000
O     5.875000000     4.194000000     1.836000000
C     4.568000000     4.311000000     1.385000000
C     3.580000000     4.977000000     2.131000000
H     3.793000000     5.441000000     3.090000000
C     2.263000000     4.997000000     1.635000000
O     1.195000000     5.605000000     2.317000000
C     0.244000000     6.300000000     1.609000000
C     0.618000000     7.375000000     0.805000000
H     1.645000000     7.712000000     0.691000000
C    -0.393000000     7.964000000     0.008000000
H    -0.213000000     8.868000000    -0.569000000
C    -1.729000000     7.460000000    -0.001000000
H    -2.405000000     8.009000000    -0.652000000
C    -2.072000000     6.392000000     0.801000000
C    -1.085000000     5.821000000     1.612000000
H    -1.513000000     5.019000000     2.208000000
C     0.606000000    -0.707000000     2.877000000
H     0.808000000    -1.492000000     3.601000000
C     0.294000000    -1.075000000     1.560000000
H     0.117000000    -2.104000000     1.258000000
C     0.275000000    -0.144000000     0.579000000
H    -0.053000000    -0.371000000    -0.426000000
C     0.390000000     1.205000000     1.033000000
H     0.395000000     2.008000000     0.300000000
C     0.559000000     1.613000000     2.329000000
H     0.866000000     2.633000000     2.547000000
C     0.638000000     0.611000000     3.305000000
C     0.976000000     0.899000000     4.693000000
O     1.042000000     1.997000000     5.185000000
O     1.404000000    -0.033000000     5.358000000
O     1.079000000    -2.349000000     6.797000000
H     1.198000000    -1.684000000     6.119000000
H     1.969000000    -2.597000000     7.047000000
O     3.614000000     4.864000000     7.761000000
H     2.823000000     4.327000000     7.711000000
H     3.937000000     4.900000000     6.861000000
O     1.866000000     2.055000000    10.226000000
H     1.917000000     2.501000000     9.380000000
H     1.464000000     1.210000000    10.027000000
O    -2.596000000    -0.166000000     6.132000000
H    -3.268000000     0.512000000     6.073000000
H    -1.882000000     0.246000000     6.619000000
O    -1.680000000     1.370000000     9.354000000
H    -2.523000000     0.918000000     9.316000000
H    -1.186000000     1.018000000     8.613000000
O    -2.354000000     0.667000000     2.418000000
H    -1.963000000     1.219000000     1.740000000
H    -1.607000000     0.265000000     2.860000000
O     3.801000000     0.576000000     6.655000000
H     4.299000000     0.291000000     5.888000000
H     2.956000000     0.854000000     6.302000000
O    -3.376000000     2.656000000     4.244000000
H    -3.626000000     1.893000000     4.766000000
H    -3.371000000     2.337000000     3.342000000
O    -0.882000000     3.813000000     4.855000000
H    -0.152000000     3.198000000     4.925000000
H    -1.627000000     3.272000000     4.596000000
O    -2.255000000    -2.780000000     6.660000000
H    -1.327000000    -2.623000000     6.829000000
H    -2.591000000    -1.935000000     6.363000000
O    -0.041000000     0.175000000     7.371000000
H     0.222000000    -0.728000000     7.549000000
H     0.460000000     0.422000000     6.594000000
O     3.204000000    -0.760000000     8.992000000
H     4.090000000    -1.093000000     9.129000000
H     3.296000000    -0.115000000     8.290000000
O     2.902000000     3.645000000     4.677000000
H     2.168000000     3.050000000     4.831000000
H     2.585000000     4.498000000     4.973000000
O    -0.456000000     5.000000000     7.144000000
H    -0.535000000     4.596000000     6.279000000
H     0.276000000     5.610000000     7.057000000
O     1.134000000     6.061000000     5.140000000
H     1.401000000     6.483000000     4.323000000
H     0.402000000     5.498000000     4.891000000
O     7.042000000     0.488000000     6.713000000
H     6.591000000     1.063000000     6.095000000
H     7.965000000     0.548000000     6.466000000
O     1.522000000     3.034000000     7.795000000
H     1.185000000     2.551000000     7.040000000
H     0.806000000     3.619000000     8.043000000
O     0.594000000    -4.794000000     7.620000000
H     1.274000000    -4.500000000     8.227000000
H     0.513000000    -4.081000000     6.988000000
O     5.443000000     2.796000000     5.955000000
H     4.873000000     3.330000000     5.402000000
H     4.861000000     2.138000000     6.335000000
