215
-1448.59744
C    -2.339000000    -4.780000000     1.451000000
H    -1.452000000    -5.212000000     0.994000000
C    -2.979000000    -3.786000000     0.689000000
C    -4.009000000    -3.064000000     1.362000000
H    -4.455000000    -2.200000000     0.876000000
C    -2.517000000    -3.480000000    -0.732000000
O    -1.736000000    -4.585000000    -1.317000000
H    -1.829000000    -2.622000000    -0.715000000
O    -3.624000000    -3.207000000    -1.637000000
C    -3.427000000    -2.135000000    -2.448000000
C    -3.946000000    -0.884000000    -1.968000000
H    -4.392000000    -0.907000000    -0.978000000
C    -3.651000000     0.260000000    -2.691000000
O    -4.044000000     1.492000000    -2.053000000
C    -2.883000000     0.242000000    -3.866000000
C    -2.689000000     1.526000000    -4.668000000
H    -2.567000000     1.296000000    -5.729000000
C    -1.489000000     2.288000000    -4.112000000
C    -0.219000000     1.947000000    -4.584000000
H    -0.086000000     1.189000000    -5.352000000
H    -3.575000000     2.163000000    -4.678000000
C    -2.322000000    -0.990000000    -4.331000000
H    -1.742000000    -0.966000000    -5.250000000
C    -2.619000000    -2.150000000    -3.625000000
C    -1.839000000    -3.367000000    -4.055000000
H    -1.686000000    -3.412000000    -5.135000000
H    -2.568000000    -4.160000000    -3.878000000
C    -0.516000000    -3.712000000    -3.250000000
C     0.685000000    -3.339000000    -3.756000000
H     0.768000000    -2.782000000    -4.686000000
C    -0.551000000    -4.272000000    -1.921000000
C     0.647000000    -4.326000000    -1.215000000
H     0.575000000    -4.619000000    -0.171000000
C     1.847000000    -3.984000000    -1.774000000
O     2.923000000    -3.980000000    -0.921000000
C     3.317000000    -2.738000000    -0.329000000
C     3.755000000    -2.991000000     1.099000000
C     4.566000000    -2.081000000     1.726000000
H     4.946000000    -1.227000000     1.172000000
C     3.200000000    -4.024000000     1.860000000
H     2.579000000    -4.783000000     1.391000000
O     4.355000000    -2.060000000    -1.104000000
H     2.413000000    -2.112000000    -0.294000000
C     1.878000000    -3.479000000    -3.046000000
C     3.075000000    -2.829000000    -3.678000000
H     2.969000000    -2.862000000    -4.764000000
H     4.022000000    -3.338000000    -3.485000000
C     3.268000000    -1.390000000    -3.250000000
C     2.797000000    -0.343000000    -4.039000000
H     2.429000000    -0.497000000    -5.051000000
C     3.909000000    -1.093000000    -2.012000000
C     3.988000000     0.237000000    -1.618000000
H     4.614000000     0.436000000    -0.751000000
C     3.516000000     1.262000000    -2.395000000
O     3.489000000     2.469000000    -1.888000000
C     2.335000000     3.120000000    -1.349000000
C     2.656000000     3.817000000    -0.090000000
C     3.698000000     3.417000000     0.718000000
H     4.319000000     2.580000000     0.409000000
C     1.776000000     4.793000000     0.471000000
H     0.903000000     5.037000000    -0.129000000
O     1.838000000     4.042000000    -2.413000000
H     1.612000000     2.370000000    -0.996000000
C     2.877000000     0.991000000    -3.584000000
C     2.301000000     2.092000000    -4.438000000
H     2.209000000     1.839000000    -5.496000000
H     3.007000000     2.923000000    -4.384000000
C     0.896000000     2.582000000    -4.073000000
C     0.755000000     3.520000000    -3.069000000
C    -0.499000000     3.861000000    -2.635000000
H    -0.568000000     4.568000000    -1.812000000
C    -1.624000000     3.207000000    -3.098000000
O    -2.838000000     3.408000000    -2.467000000
C    -3.144000000     2.372000000    -1.538000000
H    -2.251000000     1.842000000    -1.176000000
C    -3.646000000     3.078000000    -0.248000000
C    -4.407000000     2.382000000     0.669000000
H    -4.695000000     1.348000000     0.501000000
C    -3.323000000     4.414000000     0.045000000
H    -2.714000000     4.942000000    -0.683000000
C    -3.800000000     5.059000000     1.213000000
O    -3.517000000     6.399000000     1.423000000
C    -4.451000000     4.283000000     2.176000000
H    -4.770000000     4.768000000     3.095000000
C    -4.735000000     2.912000000     1.899000000
O    -5.405000000     2.140000000     2.867000000
C    -5.885000000     0.883000000     2.575000000
C    -5.223000000    -0.275000000     3.059000000
H    -4.310000000    -0.120000000     3.628000000
C    -7.165000000     0.745000000     2.020000000
H    -7.831000000     1.563000000     1.759000000
C    -7.627000000    -0.572000000     1.798000000
H    -8.667000000    -0.697000000     1.506000000
C    -7.033000000    -1.669000000     2.295000000
H    -7.407000000    -2.670000000     2.099000000
C    -5.854000000    -1.549000000     2.982000000
O    -5.240000000    -2.677000000     3.412000000
C    -4.327000000    -3.462000000     2.680000000
C    -3.666000000    -4.467000000     3.383000000
H    -3.948000000    -4.663000000     4.414000000
C    -2.634000000    -5.060000000     2.795000000
O    -1.898000000    -6.037000000     3.520000000
C    -0.610000000    -6.233000000     3.413000000
C     0.391000000    -5.312000000     3.802000000
H     0.106000000    -4.400000000     4.320000000
C    -0.272000000    -7.426000000     2.802000000
H    -1.007000000    -8.106000000     2.380000000
C     1.084000000    -7.885000000     2.825000000
H     1.322000000    -8.876000000     2.445000000
C     2.101000000    -7.071000000     3.310000000
H     3.101000000    -7.496000000     3.313000000
C     1.744000000    -5.792000000     3.706000000
O     2.768000000    -5.017000000     4.118000000
C     3.428000000    -4.089000000     3.293000000
C     4.167000000    -3.096000000     3.901000000
H     4.291000000    -3.189000000     4.977000000
C     4.753000000    -2.100000000     3.117000000
O     5.331000000    -1.012000000     3.767000000
C     5.879000000     0.094000000     3.079000000
C     5.274000000     1.302000000     3.235000000
H     4.328000000     1.352000000     3.769000000
C     7.063000000     0.038000000     2.285000000
H     7.591000000    -0.911000000     2.242000000
C     7.542000000     1.175000000     1.629000000
H     8.379000000     1.089000000     0.941000000
C     6.965000000     2.413000000     1.823000000
H     7.500000000     3.304000000     1.504000000
C     5.792000000     2.453000000     2.543000000
O     5.152000000     3.652000000     2.628000000
C     4.103000000     4.051000000     1.853000000
C     3.302000000     5.061000000     2.324000000
H     3.602000000     5.477000000     3.282000000
C     2.132000000     5.394000000     1.687000000
O     1.183000000     6.247000000     2.251000000
C     0.131000000     6.767000000     1.603000000
C     0.337000000     7.812000000     0.752000000
H     1.287000000     8.283000000     0.514000000
C    -0.795000000     8.407000000     0.152000000
H    -0.636000000     9.241000000    -0.527000000
C    -2.097000000     7.951000000     0.386000000
H    -2.957000000     8.484000000    -0.013000000
C    -2.229000000     6.891000000     1.215000000
C    -1.150000000     6.244000000     1.790000000
H    -1.251000000     5.408000000     2.477000000
C     1.220000000    -0.488000000     2.690000000
H     1.374000000    -1.347000000     3.338000000
C     0.933000000    -0.731000000     1.382000000
H     0.807000000    -1.771000000     1.093000000
C     0.428000000     0.267000000     0.604000000
H     0.074000000     0.259000000    -0.379000000
C     0.439000000     1.537000000     1.070000000
H    -0.063000000     2.315000000     0.501000000
C     0.920000000     1.868000000     2.312000000
H     0.789000000     2.874000000     2.702000000
C     1.390000000     0.842000000     3.159000000
C     1.601000000     1.160000000     4.639000000
O     1.678000000     2.258000000     5.092000000
O     1.895000000     0.192000000     5.405000000
O     1.304000000    -2.159000000     6.175000000
H     1.612000000    -1.283000000     5.943000000
H     2.102000000    -2.651000000     6.365000000
O     3.039000000     1.944000000     9.783000000
H     2.764000000     2.649000000     9.197000000
H     3.215000000     1.205000000     9.201000000
O    -1.636000000    -0.999000000     3.307000000
H    -2.240000000    -0.256000000     3.326000000
H    -0.825000000    -0.639000000     2.947000000
O     4.089000000     2.345000000     6.584000000
H     3.327000000     2.359000000     6.005000000
H     3.784000000     1.891000000     7.369000000
O    -2.546000000     1.741000000     3.864000000
H    -2.286000000     2.578000000     3.480000000
H    -2.710000000     1.941000000     4.786000000
O     0.133000000     2.464000000     7.979000000
H    -0.312000000     1.795000000     8.498000000
H     0.154000000     2.105000000     7.092000000
O    -1.458000000    -2.039000000     5.559000000
H    -0.565000000    -1.807000000     5.813000000
H    -1.531000000    -1.748000000     4.650000000
O    -0.446000000     0.304000000     9.396000000
H    -0.755000000    -0.108000000    10.202000000
H     0.488000000     0.095000000     9.363000000
O     2.790000000     0.106000000     7.924000000
H     3.331000000    -0.684000000     7.913000000
H     2.512000000     0.219000000     7.015000000
O     2.275000000     4.832000000     5.487000000
H     1.963000000     3.942000000     5.321000000
H     1.481000000     5.367000000     5.492000000
O     5.783000000    -1.026000000     7.794000000
H     6.078000000    -0.305000000     7.237000000
H     5.789000000    -0.662000000     8.679000000
O    -1.218000000     5.712000000     7.998000000
H    -2.011000000     5.494000000     7.509000000
H    -0.579000000     5.053000000     7.726000000
O    -3.539000000    -0.482000000     6.453000000
H    -2.888000000    -1.125000000     6.173000000
H    -3.115000000     0.365000000     6.313000000
O     0.330000000     6.421000000     5.347000000
H     0.524000000     6.758000000     4.472000000
H    -0.375000000     6.982000000     5.668000000
O    -3.213000000     2.925000000     6.316000000
H    -3.167000000     2.784000000     7.262000000
H    -3.251000000     3.876000000     6.217000000
O     6.767000000     1.786000000     6.885000000
H     5.858000000     1.993000000     6.670000000
H     7.244000000     1.920000000     6.065000000
O     1.917000000     4.513000000     8.260000000
H     2.149000000     4.774000000     7.369000000
H     1.358000000     3.745000000     8.147000000
O    -0.251000000    -4.246000000     7.759000000
H    -1.203000000    -4.338000000     7.739000000
H    -0.088000000    -3.367000000     7.418000000
O     5.096000000     4.863000000     5.310000000
H     4.223000000     4.863000000     4.916000000
H     4.998000000     4.345000000     6.109000000
