215
-1448.78912
C    -2.248000000    -3.454000000     1.819000000
H    -1.420000000    -3.834000000     1.226000000
C    -3.322000000    -2.803000000     1.112000000
C    -4.353000000    -2.183000000     1.823000000
H    -5.145000000    -1.649000000     1.305000000
C    -3.139000000    -2.593000000    -0.354000000
O    -2.711000000    -3.781000000    -1.000000000
H    -2.404000000    -1.774000000    -0.373000000
O    -4.315000000    -2.193000000    -0.991000000
C    -4.248000000    -1.184000000    -1.894000000
C    -4.366000000     0.066000000    -1.362000000
H    -4.670000000     0.143000000    -0.322000000
C    -4.081000000     1.198000000    -2.115000000
O    -4.151000000     2.367000000    -1.469000000
C    -3.576000000     1.117000000    -3.368000000
C    -3.159000000     2.339000000    -4.123000000
H    -3.429000000     2.285000000    -5.180000000
C    -1.692000000     2.702000000    -3.737000000
C    -0.644000000     2.240000000    -4.468000000
H    -0.918000000     1.638000000    -5.330000000
H    -3.744000000     3.194000000    -3.780000000
C    -3.451000000    -0.183000000    -3.927000000
H    -3.074000000    -0.328000000    -4.936000000
C    -3.680000000    -1.348000000    -3.162000000
C    -3.217000000    -2.733000000    -3.712000000
H    -3.097000000    -2.666000000    -4.795000000
H    -3.890000000    -3.546000000    -3.433000000
C    -1.810000000    -3.131000000    -3.118000000
C    -0.746000000    -2.989000000    -3.986000000
H    -0.928000000    -2.659000000    -5.006000000
C    -1.700000000    -3.675000000    -1.897000000
C    -0.458000000    -4.046000000    -1.436000000
H    -0.409000000    -4.442000000    -0.424000000
C     0.671000000    -3.934000000    -2.270000000
O     1.871000000    -4.241000000    -1.765000000
C     2.557000000    -3.059000000    -1.276000000
C     3.149000000    -3.384000000     0.131000000
C     4.002000000    -2.449000000     0.685000000
H     4.230000000    -1.537000000     0.139000000
C     2.777000000    -4.556000000     0.867000000
H     2.116000000    -5.314000000     0.456000000
O     3.611000000    -2.704000000    -2.195000000
H     1.760000000    -2.302000000    -1.240000000
C     0.508000000    -3.388000000    -3.521000000
C     1.704000000    -3.093000000    -4.406000000
H     1.298000000    -3.148000000    -5.418000000
H     2.428000000    -3.899000000    -4.270000000
C     2.372000000    -1.789000000    -4.110000000
C     1.851000000    -0.583000000    -4.625000000
H     1.011000000    -0.686000000    -5.308000000
C     3.282000000    -1.668000000    -3.069000000
C     3.731000000    -0.440000000    -2.667000000
H     4.458000000    -0.478000000    -1.859000000
C     3.355000000     0.672000000    -3.422000000
O     3.832000000     1.881000000    -2.952000000
C     2.971000000     2.620000000    -2.063000000
C     3.766000000     3.089000000    -0.783000000
C     5.025000000     2.614000000    -0.532000000
H     5.470000000     1.800000000    -1.098000000
C     3.281000000     4.109000000     0.011000000
H     2.359000000     4.610000000    -0.273000000
O     2.274000000     3.670000000    -2.715000000
H     2.152000000     1.938000000    -1.793000000
C     2.384000000     0.610000000    -4.385000000
C     1.849000000     1.883000000    -4.992000000
H     1.489000000     1.640000000    -5.994000000
H     2.696000000     2.560000000    -5.124000000
C     0.694000000     2.576000000    -4.196000000
C     0.950000000     3.415000000    -3.040000000
C    -0.118000000     3.896000000    -2.291000000
H     0.042000000     4.569000000    -1.453000000
C    -1.449000000     3.497000000    -2.625000000
O    -2.389000000     3.825000000    -1.713000000
C    -2.909000000     2.830000000    -0.902000000
H    -2.180000000     2.013000000    -0.793000000
C    -3.134000000     3.377000000     0.527000000
C    -4.301000000     2.986000000     1.186000000
H    -4.978000000     2.285000000     0.704000000
C    -2.183000000     4.151000000     1.184000000
H    -1.263000000     4.514000000     0.733000000
C    -2.373000000     4.611000000     2.455000000
O    -1.247000000     5.073000000     3.171000000
C    -3.558000000     4.286000000     3.094000000
H    -3.628000000     4.438000000     4.168000000
C    -4.495000000     3.425000000     2.468000000
O    -5.611000000     3.124000000     3.151000000
C    -6.243000000     1.912000000     3.254000000
C    -5.596000000     0.686000000     3.382000000
H    -4.524000000     0.677000000     3.564000000
C    -7.627000000     1.887000000     3.080000000
H    -8.081000000     2.870000000     2.991000000
C    -8.275000000     0.697000000     3.350000000
H    -9.355000000     0.726000000     3.470000000
C    -7.663000000    -0.546000000     3.508000000
H    -8.114000000    -1.492000000     3.795000000
C    -6.266000000    -0.542000000     3.535000000
O    -5.611000000    -1.736000000     3.788000000
C    -4.469000000    -2.207000000     3.202000000
C    -3.477000000    -2.931000000     3.789000000
H    -3.609000000    -3.033000000     4.863000000
C    -2.414000000    -3.583000000     3.178000000
O    -1.421000000    -4.161000000     3.914000000
C    -0.590000000    -5.205000000     3.559000000
C     0.781000000    -5.045000000     3.620000000
H     1.160000000    -4.046000000     3.819000000
C    -1.158000000    -6.460000000     3.431000000
H    -2.234000000    -6.546000000     3.557000000
C    -0.324000000    -7.556000000     3.158000000
H    -0.728000000    -8.559000000     3.046000000
C     1.016000000    -7.345000000     3.068000000
H     1.623000000    -8.177000000     2.720000000
C     1.614000000    -6.087000000     3.272000000
O     2.927000000    -5.820000000     2.894000000
C     3.262000000    -4.751000000     2.117000000
C     4.130000000    -3.848000000     2.655000000
H     4.596000000    -4.064000000     3.613000000
C     4.509000000    -2.705000000     1.977000000
O     5.290000000    -1.789000000     2.690000000
C     6.241000000    -1.035000000     1.999000000
C     6.048000000     0.351000000     1.754000000
H     5.116000000     0.755000000     2.140000000
C     7.436000000    -1.655000000     1.564000000
H     7.606000000    -2.703000000     1.797000000
C     8.440000000    -0.970000000     0.913000000
H     9.428000000    -1.346000000     0.661000000
C     8.165000000     0.408000000     0.681000000
H     8.942000000     1.002000000     0.206000000
C     7.003000000     1.081000000     1.061000000
O     6.924000000     2.469000000     0.903000000
C     5.690000000     3.020000000     0.626000000
C     5.062000000     3.816000000     1.590000000
H     5.614000000     4.158000000     2.462000000
C     3.829000000     4.410000000     1.259000000
O     3.237000000     5.357000000     2.100000000
C     2.014000000     5.880000000     1.992000000
C     1.901000000     7.203000000     1.664000000
H     2.811000000     7.665000000     1.289000000
C     0.694000000     7.896000000     1.822000000
H     0.664000000     8.953000000     1.570000000
C    -0.390000000     7.205000000     2.334000000
H    -1.323000000     7.749000000     2.457000000
C    -0.232000000     5.819000000     2.641000000
C     0.940000000     5.116000000     2.381000000
H     1.048000000     4.082000000     2.700000000
C     0.939000000    -1.074000000     2.162000000
H     0.701000000    -1.946000000     2.766000000
C     0.428000000    -1.077000000     0.848000000
H    -0.144000000    -1.922000000     0.476000000
C     0.528000000     0.063000000     0.146000000
H     0.134000000     0.176000000    -0.849000000
C     1.221000000     1.165000000     0.637000000
H     1.238000000     2.056000000     0.016000000
C     1.867000000     1.115000000     1.857000000
H     2.428000000     1.986000000     2.188000000
C     1.721000000    -0.015000000     2.617000000
C     2.484000000    -0.089000000     3.977000000
O     3.000000000     0.893000000     4.487000000
O     2.540000000    -1.156000000     4.581000000
O    -0.529000000    -0.299000000     8.061000000
H    -0.108000000     0.401000000     7.562000000
H    -0.451000000    -1.072000000     7.502000000
O    -0.070000000    -3.670000000     9.028000000
H    -0.585000000    -4.029000000     8.305000000
H     0.821000000    -3.611000000     8.681000000
O    -1.137000000     2.130000000     3.759000000
H    -1.834000000     2.376000000     4.368000000
H    -0.759000000     2.963000000     3.478000000
O     0.310000000    -2.436000000     6.165000000
H     1.062000000    -2.214000000     5.615000000
H     0.508000000    -3.311000000     6.498000000
O     4.175000000    -2.515000000     6.106000000
H     3.641000000    -1.940000000     5.558000000
H     4.678000000    -1.918000000     6.661000000
O     2.667000000     0.425000000     7.132000000
H     2.483000000     1.359000000     7.228000000
H     2.647000000     0.272000000     6.188000000
O     5.745000000     4.014000000     5.463000000
H     6.121000000     4.312000000     6.292000000
H     4.824000000     4.269000000     5.513000000
O    -1.333000000    -0.435000000     4.298000000
H    -0.796000000    -1.187000000     4.550000000
H    -0.704000000     0.212000000     3.980000000
O     4.447000000    -5.306000000     6.009000000
H     4.461000000    -4.408000000     5.679000000
H     5.366000000    -5.512000000     6.182000000
O     1.554000000     3.110000000     5.331000000
H     2.051000000     2.337000000     5.064000000
H     2.220000000     3.738000000     5.613000000
O     6.519000000    -1.097000000     5.232000000
H     5.722000000    -1.503000000     4.891000000
H     6.287000000    -0.176000000     5.351000000
O    -2.649000000     0.539000000     1.705000000
H    -2.355000000    -0.011000000     2.432000000
H    -2.261000000     1.396000000     1.880000000
O    -0.152000000     3.370000000     7.382000000
H     0.318000000     3.070000000     6.604000000
H     0.436000000     3.168000000     8.109000000
O     5.285000000     0.838000000     8.457000000
H     4.468000000     0.557000000     8.043000000
H     5.256000000     1.794000000     8.420000000
O     8.193000000     2.205000000     4.628000000
H     8.188000000     3.061000000     5.057000000
H     7.272000000     2.027000000     4.439000000
O    -3.223000000     0.210000000     6.430000000
H    -2.561000000    -0.185000000     5.863000000
H    -3.001000000     1.142000000     6.443000000
O     3.342000000     4.840000000     6.639000000
H     3.097000000     5.524000000     6.016000000
H     3.106000000     5.200000000     7.494000000
O    -2.556000000     2.950000000     6.237000000
H    -1.698000000     3.305000000     6.468000000
H    -3.173000000     3.436000000     6.784000000
O     5.548000000     1.515000000     4.840000000
H     5.531000000     2.465000000     4.949000000
H     4.630000000     1.272000000     4.715000000
