215
-1454.06646
C    -2.371000000    -3.340000000     1.791000000
H    -1.371000000    -3.606000000     1.458000000
C    -3.315000000    -2.994000000     0.826000000
C    -4.566000000    -2.542000000     1.226000000
H    -5.379000000    -2.393000000     0.520000000
C    -2.790000000    -2.954000000    -0.639000000
O    -2.183000000    -4.224000000    -1.176000000
H    -2.156000000    -2.059000000    -0.725000000
O    -3.938000000    -2.615000000    -1.435000000
C    -3.831000000    -1.584000000    -2.364000000
C    -4.212000000    -0.277000000    -2.049000000
H    -4.763000000    -0.123000000    -1.124000000
C    -3.789000000     0.728000000    -2.911000000
O    -4.019000000     1.976000000    -2.367000000
C    -2.945000000     0.574000000    -3.996000000
C    -2.420000000     1.829000000    -4.727000000
H    -2.144000000     1.475000000    -5.722000000
C    -1.121000000     2.421000000    -4.102000000
C     0.130000000     2.050000000    -4.651000000
H     0.119000000     1.385000000    -5.510000000
H    -3.216000000     2.565000000    -4.855000000
C    -2.664000000    -0.753000000    -4.359000000
H    -1.995000000    -0.958000000    -5.191000000
C    -2.986000000    -1.814000000    -3.514000000
C    -2.454000000    -3.262000000    -3.831000000
H    -2.446000000    -3.278000000    -4.923000000
H    -3.165000000    -4.055000000    -3.589000000
C    -1.089000000    -3.546000000    -3.160000000
C     0.091000000    -3.351000000    -3.933000000
H     0.106000000    -2.857000000    -4.901000000
C    -0.992000000    -4.019000000    -1.843000000
C     0.201000000    -4.385000000    -1.291000000
H     0.201000000    -4.860000000    -0.313000000
C     1.373000000    -4.047000000    -2.013000000
O     2.589000000    -4.229000000    -1.393000000
C     3.029000000    -3.087000000    -0.639000000
C     3.518000000    -3.437000000     0.738000000
C     4.373000000    -2.571000000     1.352000000
H     4.702000000    -1.689000000     0.809000000
C     2.904000000    -4.479000000     1.454000000
H     2.193000000    -5.098000000     0.913000000
O     4.138000000    -2.597000000    -1.420000000
H     2.292000000    -2.288000000    -0.468000000
C     1.254000000    -3.457000000    -3.278000000
C     2.530000000    -3.022000000    -3.906000000
H     2.399000000    -2.947000000    -4.987000000
H     3.227000000    -3.856000000    -3.802000000
C     3.126000000    -1.707000000    -3.503000000
C     2.836000000    -0.576000000    -4.293000000
H     2.355000000    -0.749000000    -5.253000000
C     3.950000000    -1.573000000    -2.328000000
C     4.408000000    -0.310000000    -2.008000000
H     5.012000000    -0.169000000    -1.116000000
C     3.983000000     0.806000000    -2.730000000
O     4.169000000     1.995000000    -2.089000000
C     3.062000000     2.672000000    -1.399000000
C     3.525000000     3.308000000    -0.115000000
C     4.521000000     2.674000000     0.630000000
H     4.922000000     1.759000000     0.201000000
C     2.907000000     4.466000000     0.336000000
H     2.002000000     4.790000000    -0.171000000
O     2.431000000     3.661000000    -2.247000000
H     2.302000000     1.934000000    -1.103000000
C     3.184000000     0.730000000    -3.865000000
C     2.714000000     1.984000000    -4.593000000
H     2.538000000     1.808000000    -5.657000000
H     3.481000000     2.751000000    -4.470000000
C     1.364000000     2.508000000    -4.069000000
C     1.320000000     3.220000000    -2.861000000
C     0.104000000     3.684000000    -2.421000000
H     0.065000000     4.343000000    -1.558000000
C    -1.115000000     3.289000000    -3.017000000
O    -2.314000000     3.662000000    -2.427000000
C    -2.993000000     2.629000000    -1.623000000
H    -2.270000000     1.807000000    -1.526000000
C    -3.358000000     3.119000000    -0.209000000
C    -4.613000000     2.774000000     0.301000000
H    -5.184000000     2.018000000    -0.232000000
C    -2.514000000     3.929000000     0.522000000
H    -1.514000000     4.146000000     0.154000000
C    -2.898000000     4.314000000     1.765000000
O    -2.010000000     5.103000000     2.572000000
C    -4.084000000     3.912000000     2.340000000
H    -4.276000000     4.209000000     3.368000000
C    -4.991000000     3.259000000     1.554000000
O    -6.237000000     2.887000000     2.111000000
C    -6.778000000     1.644000000     2.135000000
C    -6.105000000     0.479000000     2.432000000
H    -5.103000000     0.641000000     2.820000000
C    -8.135000000     1.526000000     1.962000000
H    -8.695000000     2.458000000     1.978000000
C    -8.884000000     0.364000000     2.161000000
H    -9.970000000     0.381000000     2.128000000
C    -8.132000000    -0.799000000     2.442000000
H    -8.544000000    -1.785000000     2.637000000
C    -6.729000000    -0.755000000     2.605000000
O    -5.956000000    -1.760000000     3.207000000
C    -4.779000000    -2.255000000     2.595000000
C    -3.781000000    -2.502000000     3.537000000
H    -4.081000000    -2.376000000     4.574000000
C    -2.579000000    -3.046000000     3.161000000
O    -1.618000000    -3.375000000     4.091000000
C    -0.852000000    -4.527000000     4.063000000
C     0.534000000    -4.429000000     3.831000000
H     1.018000000    -3.485000000     3.598000000
C    -1.409000000    -5.745000000     4.501000000
H    -2.453000000    -5.806000000     4.794000000
C    -0.623000000    -6.938000000     4.557000000
H    -1.020000000    -7.901000000     4.867000000
C     0.667000000    -6.886000000     4.118000000
H     1.269000000    -7.789000000     4.061000000
C     1.246000000    -5.643000000     3.768000000
O     2.628000000    -5.719000000     3.503000000
C     3.252000000    -4.783000000     2.742000000
C     4.162000000    -3.889000000     3.336000000
H     4.329000000    -3.940000000     4.409000000
C     4.760000000    -2.786000000     2.689000000
O     5.540000000    -1.866000000     3.389000000
C     6.175000000    -0.841000000     2.796000000
C     5.809000000     0.421000000     3.182000000
H     4.982000000     0.566000000     3.873000000
C     7.157000000    -1.062000000     1.896000000
H     7.443000000    -2.087000000     1.674000000
C     7.870000000     0.022000000     1.273000000
H     8.573000000    -0.182000000     0.470000000
C     7.475000000     1.286000000     1.594000000
H     7.883000000     2.122000000     1.032000000
C     6.425000000     1.489000000     2.498000000
O     5.884000000     2.771000000     2.698000000
C     4.873000000     3.260000000     1.895000000
C     4.283000000     4.471000000     2.322000000
H     4.609000000     4.909000000     3.261000000
C     3.257000000     5.072000000     1.548000000
O     2.600000000     6.230000000     1.907000000
C     1.280000000     6.392000000     1.646000000
C     0.941000000     7.241000000     0.576000000
H     1.652000000     7.715000000    -0.096000000
C    -0.398000000     7.464000000     0.232000000
H    -0.701000000     8.003000000    -0.663000000
C    -1.419000000     6.812000000     0.886000000
H    -2.442000000     6.961000000     0.548000000
C    -1.076000000     5.891000000     1.897000000
C     0.251000000     5.730000000     2.288000000
H     0.482000000     5.149000000     3.177000000
C     0.782000000    -0.568000000     2.677000000
H     0.789000000    -1.257000000     3.517000000
C     0.555000000    -0.953000000     1.369000000
H     0.529000000    -2.006000000     1.099000000
C     0.396000000    -0.030000000     0.348000000
H     0.330000000    -0.348000000    -0.660000000
C     0.357000000     1.266000000     0.661000000
H     0.040000000     1.969000000    -0.105000000
C     0.624000000     1.759000000     1.974000000
H     0.617000000     2.831000000     2.154000000
C     0.973000000     0.793000000     2.972000000
C     1.298000000     1.199000000     4.400000000
O     1.355000000     2.386000000     4.669000000
O     1.570000000     0.320000000     5.215000000
O    -2.212000000     5.523000000     6.758000000
H    -1.904000000     4.715000000     6.348000000
H    -1.546000000     6.174000000     6.536000000
O     0.613000000    -1.865000000     6.805000000
H     0.904000000    -1.515000000     5.963000000
H     1.187000000    -2.614000000     6.964000000
O    -1.682000000     3.117000000     5.190000000
H    -1.959000000     3.138000000     4.274000000
H    -0.744000000     2.930000000     5.153000000
O    -1.873000000    -0.533000000     6.425000000
H    -0.964000000    -0.816000000     6.524000000
H    -2.356000000    -1.338000000     6.242000000
O     4.001000000    -0.220000000     6.519000000
H     3.175000000    -0.005000000     6.085000000
H     3.753000000    -0.816000000     7.225000000
O     0.775000000     3.634000000     7.104000000
H     0.934000000     3.400000000     6.189000000
H     0.812000000     2.800000000     7.573000000
O     0.681000000     1.034000000     7.835000000
H     0.522000000     0.245000000     8.353000000
H     0.915000000     0.706000000     6.967000000
O    -3.886000000     0.537000000     4.795000000
H    -3.173000000     0.390000000     5.417000000
H    -3.448000000     0.646000000     3.951000000
O    -0.212000000    -0.917000000     9.850000000
H    -0.029000000    -1.077000000    10.776000000
H    -0.310000000    -1.791000000     9.472000000
O     3.787000000     3.342000000     5.746000000
H     3.034000000     2.802000000     5.506000000
H     3.431000000     4.226000000     5.831000000
O     6.955000000    -0.170000000     6.374000000
H     7.264000000     0.651000000     5.990000000
H     6.021000000    -0.026000000     6.527000000
O     2.439000000     5.909000000     4.963000000
H     1.796000000     6.441000000     5.430000000
H     2.186000000     5.981000000     4.042000000
O    -2.431000000     0.784000000     2.559000000
H    -1.931000000     1.475000000     2.124000000
H    -2.128000000    -0.026000000     2.148000000
O     2.898000000     4.735000000     8.753000000
H     2.247000000     4.691000000     8.052000000
H     2.718000000     3.966000000     9.295000000
O     1.887000000     2.415000000     9.854000000
H     1.515000000     2.243000000    10.719000000
H     1.325000000     1.929000000     9.251000000
O    -2.267000000     2.511000000     7.647000000
H    -2.043000000     2.815000000     6.768000000
H    -1.698000000     1.755000000     7.792000000
O     6.422000000     4.240000000     5.086000000
H     6.060000000     5.103000000     5.288000000
H     5.655000000     3.693000000     4.918000000
O     4.642000000     2.436000000     8.245000000
H     4.223000000     1.654000000     7.886000000
H     4.216000000     3.165000000     7.794000000
O    -0.277000000     4.957000000     9.152000000
H    -1.071000000     5.249000000     8.704000000
H     0.226000000     4.504000000     8.475000000
