215
-1439.41482
C    -4.211000000     2.738000000    -1.866000000
H    -3.960000000     2.797000000    -2.923000000
C    -3.401000000     3.229000000    -0.854000000
C    -3.854000000     3.288000000     0.486000000
H    -3.129000000     3.621000000     1.224000000
C    -1.960000000     3.533000000    -1.204000000
O    -1.785000000     3.975000000    -2.597000000
H    -1.374000000     2.636000000    -0.955000000
O    -1.521000000     4.700000000    -0.416000000
C    -0.205000000     4.610000000     0.133000000
C    -0.021000000     4.275000000     1.465000000
H    -0.870000000     4.152000000     2.133000000
C     1.276000000     3.960000000     1.942000000
O     1.276000000     3.410000000     3.177000000
C     2.416000000     4.171000000     1.099000000
C     3.802000000     3.815000000     1.677000000
H     4.580000000     4.335000000     1.113000000
C     4.109000000     2.311000000     1.580000000
C     4.763000000     1.743000000     0.485000000
H     5.103000000     2.365000000    -0.339000000
H     3.838000000     4.151000000     2.716000000
C     2.228000000     4.559000000    -0.253000000
H     3.138000000     4.680000000    -0.836000000
C     0.950000000     4.737000000    -0.735000000
C     0.827000000     5.116000000    -2.194000000
H     1.755000000     5.616000000    -2.479000000
H     0.113000000     5.898000000    -2.459000000
C     0.570000000     3.911000000    -3.073000000
C     1.610000000     3.124000000    -3.567000000
H     2.641000000     3.270000000    -3.253000000
C    -0.748000000     3.565000000    -3.374000000
C    -0.961000000     2.421000000    -4.075000000
H    -1.922000000     2.109000000    -4.477000000
C     0.055000000     1.583000000    -4.548000000
O    -0.199000000     0.276000000    -5.001000000
C    -0.027000000    -0.863000000    -4.127000000
C    -1.270000000    -1.821000000    -4.153000000
C    -1.139000000    -3.137000000    -3.663000000
H    -0.185000000    -3.437000000    -3.236000000
C    -2.534000000    -1.334000000    -4.486000000
H    -2.645000000    -0.314000000    -4.845000000
O     1.197000000    -1.667000000    -4.373000000
H     0.137000000    -0.474000000    -3.111000000
C     1.405000000     1.950000000    -4.345000000
C     2.544000000     1.040000000    -4.726000000
H     3.420000000     1.683000000    -4.839000000
H     2.340000000     0.642000000    -5.722000000
C     2.921000000    -0.024000000    -3.684000000
C     4.005000000     0.263000000    -2.790000000
H     4.447000000     1.256000000    -2.797000000
C     2.308000000    -1.298000000    -3.655000000
C     2.794000000    -2.175000000    -2.750000000
H     2.220000000    -3.095000000    -2.675000000
C     3.818000000    -1.876000000    -1.802000000
O     4.023000000    -2.772000000    -0.829000000
C     3.387000000    -2.557000000     0.473000000
C     2.756000000    -3.738000000     1.126000000
C     2.267000000    -4.811000000     0.351000000
H     2.387000000    -4.809000000    -0.729000000
C     2.601000000    -3.759000000     2.491000000
H     2.984000000    -2.960000000     3.120000000
O     4.367000000    -1.928000000     1.283000000
H     2.569000000    -1.830000000     0.358000000
C     4.511000000    -0.652000000    -1.880000000
C     5.593000000    -0.255000000    -0.923000000
H     6.188000000     0.546000000    -1.367000000
H     6.287000000    -1.075000000    -0.726000000
C     4.911000000     0.345000000     0.330000000
C     4.453000000    -0.519000000     1.327000000
C     3.974000000    -0.003000000     2.501000000
H     3.734000000    -0.708000000     3.293000000
C     3.713000000     1.347000000     2.557000000
O     3.034000000     1.836000000     3.591000000
C     1.654000000     2.031000000     3.411000000
H     1.395000000     1.458000000     2.508000000
C     0.851000000     1.439000000     4.567000000
C    -0.502000000     1.817000000     4.660000000
H    -0.968000000     2.626000000     4.103000000
C     1.245000000     0.399000000     5.436000000
H     2.288000000     0.125000000     5.299000000
C     0.433000000    -0.096000000     6.422000000
O     0.915000000    -0.998000000     7.287000000
C    -0.884000000     0.166000000     6.369000000
H    -1.535000000    -0.373000000     7.053000000
C    -1.375000000     1.108000000     5.510000000
O    -2.673000000     1.507000000     5.601000000
C    -3.270000000     2.556000000     4.884000000
C    -4.128000000     2.284000000     3.814000000
H    -4.186000000     1.222000000     3.591000000
C    -3.163000000     3.841000000     5.369000000
H    -2.543000000     3.998000000     6.248000000
C    -3.925000000     4.833000000     4.782000000
H    -3.933000000     5.831000000     5.212000000
C    -4.718000000     4.547000000     3.578000000
H    -5.354000000     5.276000000     3.083000000
C    -4.746000000     3.266000000     3.055000000
O    -5.609000000     2.917000000     2.049000000
C    -5.174000000     2.899000000     0.745000000
C    -5.997000000     2.466000000    -0.280000000
H    -7.033000000     2.362000000     0.030000000
C    -5.570000000     2.504000000    -1.578000000
O    -6.452000000     2.124000000    -2.598000000
C    -6.035000000     1.531000000    -3.776000000
C    -5.751000000     0.169000000    -3.771000000
H    -5.810000000    -0.341000000    -2.813000000
C    -5.942000000     2.236000000    -4.969000000
H    -5.939000000     3.323000000    -4.984000000
C    -5.534000000     1.484000000    -6.132000000
H    -5.466000000     2.007000000    -7.082000000
C    -5.210000000     0.090000000    -6.025000000
H    -4.831000000    -0.472000000    -6.876000000
C    -5.289000000    -0.508000000    -4.808000000
O    -4.889000000    -1.820000000    -4.706000000
C    -3.642000000    -2.239000000    -4.367000000
C    -3.464000000    -3.576000000    -4.020000000
H    -4.325000000    -4.235000000    -3.931000000
C    -2.218000000    -3.964000000    -3.565000000
O    -2.119000000    -5.274000000    -3.168000000
C    -0.968000000    -5.926000000    -2.794000000
C    -0.565000000    -6.036000000    -1.494000000
H    -1.206000000    -5.707000000    -0.680000000
C    -0.145000000    -6.512000000    -3.772000000
H    -0.414000000    -6.409000000    -4.820000000
C     1.019000000    -7.182000000    -3.450000000
H     1.736000000    -7.568000000    -4.170000000
C     1.435000000    -7.208000000    -2.074000000
H     2.319000000    -7.678000000    -1.651000000
C     0.619000000    -6.619000000    -1.126000000
O     0.884000000    -6.753000000     0.230000000
C     1.515000000    -5.798000000     0.936000000
C     1.356000000    -5.793000000     2.255000000
H     0.836000000    -6.677000000     2.614000000
C     1.787000000    -4.766000000     3.040000000
O     1.469000000    -4.786000000     4.316000000
C     1.878000000    -3.932000000     5.290000000
C     3.082000000    -4.225000000     5.914000000
H     3.632000000    -5.126000000     5.655000000
C     3.535000000    -3.522000000     6.995000000
H     4.475000000    -3.793000000     7.469000000
C     2.842000000    -2.454000000     7.434000000
H     2.998000000    -1.963000000     8.391000000
C     1.627000000    -2.134000000     6.854000000
C     1.143000000    -2.868000000     5.763000000
H     0.127000000    -2.780000000     5.388000000
C    -0.767000000    -2.453000000     0.887000000
H    -0.871000000    -3.503000000     0.625000000
C     0.096000000    -1.617000000     0.155000000
H     0.537000000    -2.159000000    -0.678000000
C     0.235000000    -0.257000000     0.519000000
H     0.794000000     0.441000000    -0.104000000
C    -0.518000000     0.217000000     1.588000000
H    -0.412000000     1.268000000     1.845000000
C    -1.310000000    -0.655000000     2.342000000
H    -1.780000000    -0.285000000     3.250000000
C    -1.465000000    -1.989000000     1.975000000
C    -2.174000000    -2.993000000     2.783000000
O    -2.776000000    -2.609000000     3.749000000
O    -2.119000000    -4.193000000     2.535000000
O    -4.874000000    -6.923000000     5.541000000
H    -4.818000000    -7.691000000     4.973000000
H    -4.746000000    -6.179000000     4.952000000
O    -3.266000000    -5.800000000     0.752000000
H    -2.739000000    -6.599000000     0.741000000
H    -2.787000000    -5.204000000     1.328000000
O    -2.226000000    -4.096000000     6.156000000
H    -2.045000000    -4.920000000     5.705000000
H    -2.227000000    -3.438000000     5.461000000
O    -3.802000000     0.064000000     1.177000000
H    -3.588000000    -0.260000000     0.302000000
H    -3.101000000    -0.274000000     1.735000000
O    -8.081000000    -1.251000000     3.389000000
H    -8.787000000    -1.884000000     3.256000000
H    -7.285000000    -1.724000000     3.148000000
O    -1.939000000    -8.262000000     0.444000000
H    -2.410000000    -8.646000000    -0.296000000
H    -1.211000000    -8.864000000     0.601000000
O     1.039000000    -7.490000000     5.624000000
H     0.606000000    -7.227000000     6.437000000
H     0.861000000    -6.773000000     5.015000000
O    -3.238000000    -0.873000000    -1.155000000
H    -2.611000000    -1.594000000    -1.199000000
H    -3.962000000    -1.151000000    -1.716000000
O    -4.099000000    -5.426000000     7.615000000
H    -4.228000000    -6.154000000     7.007000000
H    -3.307000000    -4.989000000     7.302000000
O    -4.732000000    -4.736000000     3.880000000
H    -5.173000000    -4.899000000     3.046000000
H    -3.898000000    -4.336000000     3.635000000
O    -5.559000000    -2.899000000    -1.391000000
H    -6.190000000    -3.053000000    -2.095000000
H    -5.084000000    -3.725000000    -1.310000000
O    -7.327000000    -2.248000000     0.439000000
H    -6.726000000    -1.992000000     1.138000000
H    -6.761000000    -2.407000000    -0.317000000
O    -1.346000000    -6.059000000     4.194000000
H    -1.854000000    -6.819000000     3.909000000
H    -1.543000000    -5.383000000     3.545000000
O    -5.383000000    -1.992000000     2.408000000
H    -4.604000000    -2.408000000     2.778000000
H    -5.050000000    -1.210000000     1.968000000
O    -4.273000000    -1.221000000     5.502000000
H    -4.530000000    -1.915000000     6.110000000
H    -3.854000000    -1.682000000     4.776000000
O    -5.925000000    -6.023000000     1.491000000
H    -6.335000000    -6.024000000     0.626000000
H    -4.987000000    -5.959000000     1.312000000
O    -2.876000000    -8.230000000     3.204000000
H    -2.933000000    -8.105000000     2.257000000
H    -3.585000000    -8.840000000     3.408000000
O    -5.855000000    -3.562000000     6.405000000
H    -5.513000000    -3.745000000     5.531000000
H    -5.797000000    -4.398000000     6.866000000
O    -0.689000000    -4.261000000     8.466000000
H    -0.291000000    -5.132000000     8.474000000
H    -1.063000000    -4.176000000     7.589000000
