215
-1440.37038
C    -3.933000000    -3.728000000     1.740000000
H    -3.276000000    -4.497000000     1.343000000
C    -4.451000000    -2.706000000     0.945000000
C    -5.409000000    -1.867000000     1.574000000
H    -5.851000000    -1.086000000     0.962000000
C    -3.769000000    -2.522000000    -0.437000000
O    -3.311000000    -3.771000000    -0.929000000
H    -2.871000000    -1.899000000    -0.307000000
O    -4.729000000    -1.838000000    -1.366000000
C    -4.249000000    -0.882000000    -2.203000000
C    -4.213000000     0.408000000    -1.789000000
H    -4.686000000     0.712000000    -0.858000000
C    -3.700000000     1.386000000    -2.643000000
O    -3.658000000     2.658000000    -2.093000000
C    -2.897000000     1.080000000    -3.637000000
C    -2.291000000     2.170000000    -4.501000000
H    -2.263000000     1.967000000    -5.574000000
C    -0.897000000     2.520000000    -4.100000000
C     0.186000000     1.891000000    -4.761000000
H     0.046000000     1.008000000    -5.379000000
H    -3.016000000     2.980000000    -4.400000000
C    -2.770000000    -0.216000000    -4.060000000
H    -2.062000000    -0.464000000    -4.847000000
C    -3.493000000    -1.225000000    -3.414000000
C    -3.264000000    -2.680000000    -3.639000000
H    -3.047000000    -2.965000000    -4.671000000
H    -4.152000000    -3.245000000    -3.348000000
C    -2.052000000    -3.084000000    -2.907000000
C    -0.765000000    -2.985000000    -3.482000000
H    -0.758000000    -2.634000000    -4.511000000
C    -2.119000000    -3.722000000    -1.686000000
C    -0.944000000    -4.223000000    -1.080000000
H    -0.991000000    -4.656000000    -0.084000000
C     0.322000000    -4.118000000    -1.715000000
O     1.471000000    -4.466000000    -1.035000000
C     2.376000000    -3.388000000    -0.568000000
C     2.820000000    -3.595000000     0.825000000
C     4.120000000    -3.255000000     1.235000000
H     4.802000000    -2.946000000     0.447000000
C     1.935000000    -4.143000000     1.788000000
H     0.882000000    -4.332000000     1.595000000
O     3.500000000    -3.260000000    -1.455000000
H     1.860000000    -2.424000000    -0.691000000
C     0.443000000    -3.540000000    -2.927000000
C     1.738000000    -3.521000000    -3.673000000
H     1.484000000    -3.392000000    -4.727000000
H     2.374000000    -4.382000000    -3.456000000
C     2.541000000    -2.291000000    -3.423000000
C     2.344000000    -1.192000000    -4.250000000
H     1.663000000    -1.320000000    -5.087000000
C     3.370000000    -2.225000000    -2.340000000
C     4.077000000    -0.993000000    -2.108000000
H     4.820000000    -0.934000000    -1.317000000
C     3.845000000     0.152000000    -2.887000000
O     4.368000000     1.353000000    -2.522000000
C     3.408000000     2.237000000    -1.793000000
C     4.149000000     2.846000000    -0.581000000
C     5.009000000     2.047000000     0.172000000
H     5.365000000     1.106000000    -0.239000000
C     3.614000000     4.006000000    -0.015000000
H     2.943000000     4.661000000    -0.565000000
O     2.885000000     3.242000000    -2.709000000
H     2.580000000     1.629000000    -1.399000000
C     2.945000000     0.022000000    -3.964000000
C     2.663000000     1.219000000    -4.818000000
H     2.390000000     0.883000000    -5.820000000
H     3.559000000     1.807000000    -5.024000000
C     1.464000000     2.086000000    -4.293000000
C     1.667000000     3.022000000    -3.259000000
C     0.602000000     3.675000000    -2.576000000
H     0.671000000     4.358000000    -1.734000000
C    -0.679000000     3.416000000    -3.082000000
O    -1.775000000     3.877000000    -2.353000000
C    -2.435000000     3.022000000    -1.377000000
H    -1.796000000     2.132000000    -1.287000000
C    -2.693000000     3.713000000    -0.029000000
C    -3.839000000     3.454000000     0.711000000
H    -4.565000000     2.740000000     0.329000000
C    -1.692000000     4.522000000     0.544000000
H    -0.807000000     4.771000000    -0.035000000
C    -1.804000000     4.973000000     1.839000000
O    -0.790000000     5.623000000     2.561000000
C    -2.987000000     4.716000000     2.513000000
H    -3.149000000     4.975000000     3.557000000
C    -3.974000000     3.956000000     1.988000000
O    -5.080000000     3.711000000     2.842000000
C    -5.914000000     2.675000000     2.605000000
C    -5.667000000     1.459000000     3.253000000
H    -4.882000000     1.371000000     4.000000000
C    -6.943000000     2.772000000     1.665000000
H    -7.318000000     3.729000000     1.310000000
C    -7.749000000     1.677000000     1.431000000
H    -8.686000000     1.824000000     0.900000000
C    -7.584000000     0.467000000     2.111000000
H    -8.270000000    -0.358000000     1.936000000
C    -6.576000000     0.369000000     3.054000000
O    -6.314000000    -0.854000000     3.555000000
C    -5.582000000    -1.880000000     2.948000000
C    -4.903000000    -2.806000000     3.679000000
H    -5.061000000    -2.769000000     4.753000000
C    -4.077000000    -3.756000000     3.124000000
O    -3.424000000    -4.624000000     4.007000000
C    -2.157000000    -5.210000000     3.852000000
C    -0.999000000    -4.506000000     4.109000000
H    -1.081000000    -3.440000000     4.303000000
C    -2.116000000    -6.580000000     3.442000000
H    -3.024000000    -7.107000000     3.159000000
C    -0.916000000    -7.272000000     3.209000000
H    -0.853000000    -8.254000000     2.748000000
C     0.215000000    -6.598000000     3.651000000
H     1.099000000    -7.209000000     3.812000000
C     0.178000000    -5.259000000     3.974000000
O     1.393000000    -4.674000000     4.182000000
C     2.310000000    -4.278000000     3.136000000
C     3.648000000    -3.944000000     3.532000000
H     3.847000000    -3.992000000     4.600000000
C     4.484000000    -3.359000000     2.534000000
O     5.802000000    -3.094000000     2.887000000
C     6.517000000    -1.969000000     2.408000000
C     5.957000000    -0.708000000     2.456000000
H     4.996000000    -0.557000000     2.941000000
C     7.815000000    -2.136000000     1.956000000
H     8.293000000    -3.113000000     1.961000000
C     8.547000000    -1.013000000     1.651000000
H     9.624000000    -1.001000000     1.508000000
C     7.960000000     0.248000000     1.715000000
H     8.495000000     1.144000000     1.410000000
C     6.651000000     0.443000000     2.030000000
O     6.138000000     1.719000000     2.272000000
C     5.409000000     2.500000000     1.387000000
C     5.031000000     3.754000000     1.872000000
H     5.359000000     4.087000000     2.853000000
C     4.083000000     4.458000000     1.216000000
O     3.805000000     5.694000000     1.715000000
C     2.597000000     6.208000000     1.396000000
C     2.381000000     7.403000000     0.683000000
H     3.216000000     7.819000000     0.125000000
C     1.135000000     7.872000000     0.510000000
H     0.982000000     8.762000000    -0.094000000
C     0.077000000     7.307000000     1.183000000
H    -0.830000000     7.905000000     1.133000000
C     0.266000000     6.148000000     1.900000000
C     1.537000000     5.577000000     2.003000000
H     1.768000000     4.771000000     2.696000000
C    -0.101000000    -0.946000000     2.614000000
H     0.523000000    -1.632000000     3.182000000
C     0.114000000    -0.838000000     1.208000000
H     0.995000000    -1.317000000     0.787000000
C    -0.711000000    -0.136000000     0.369000000
H    -0.685000000    -0.110000000    -0.665000000
C    -1.867000000     0.369000000     0.957000000
H    -2.592000000     0.811000000     0.278000000
C    -2.088000000     0.343000000     2.360000000
H    -2.911000000     0.896000000     2.806000000
C    -1.232000000    -0.428000000     3.184000000
C    -1.403000000    -0.522000000     4.721000000
O    -2.333000000     0.002000000     5.259000000
O    -0.592000000    -1.115000000     5.396000000
O     3.375000000     1.496000000     3.693000000
H     2.867000000     1.422000000     4.501000000
H     4.286000000     1.406000000     3.973000000
O    -3.740000000    -4.459000000     8.063000000
H    -3.498000000    -3.947000000     7.291000000
H    -2.958000000    -4.445000000     8.615000000
O    -3.691000000     2.590000000     8.626000000
H    -4.023000000     2.444000000     9.512000000
H    -3.792000000     1.743000000     8.191000000
O    -5.055000000     3.200000000     5.801000000
H    -4.111000000     3.075000000     5.702000000
H    -5.314000000     3.694000000     5.023000000
O    -2.345000000     2.668000000     5.365000000
H    -1.639000000     2.797000000     4.731000000
H    -2.507000000     1.725000000     5.355000000
O    -3.949000000     0.184000000     7.402000000
H    -4.599000000    -0.474000000     7.158000000
H    -3.319000000     0.178000000     6.681000000
O    -0.504000000     4.980000000     5.944000000
H    -1.266000000     4.531000000     6.309000000
H    -0.070000000     4.318000000     5.407000000
O    -5.625000000    -2.033000000     6.994000000
H    -5.667000000    -2.989000000     7.004000000
H    -6.536000000    -1.754000000     6.898000000
O     1.461000000    -2.517000000     6.199000000
H     0.753000000    -2.116000000     5.695000000
H     1.629000000    -3.348000000     5.755000000
O     3.903000000    -2.812000000     7.409000000
H     3.073000000    -2.577000000     6.995000000
H     4.104000000    -3.682000000     7.066000000
O    -1.192000000     3.741000000     8.656000000
H    -1.979000000     3.198000000     8.620000000
H    -1.432000000     4.473000000     9.225000000
O    -0.559000000     0.248000000     7.771000000
H    -0.658000000    -0.160000000     6.911000000
H    -1.239000000     0.921000000     7.796000000
O     0.122000000     2.895000000     4.414000000
H     0.930000000     2.939000000     4.925000000
H     0.403000000     2.602000000     3.547000000
O     2.541000000     3.105000000     5.931000000
H     2.998000000     3.917000000     5.712000000
H     3.184000000     2.591000000     6.419000000
O    -2.540000000    -1.057000000     9.655000000
H    -1.703000000    -0.644000000     9.440000000
H    -3.131000000    -0.780000000     8.954000000
O     1.900000000     1.934000000     8.769000000
H     2.217000000     1.055000000     8.978000000
H     1.065000000     1.789000000     8.324000000
O     0.951000000     2.206000000     1.992000000
H     0.681000000     1.349000000     1.664000000
H     1.907000000     2.167000000     2.004000000
O     0.858000000    -1.951000000     9.457000000
H     0.400000000    -1.554000000     8.716000000
H     1.244000000    -2.750000000     9.099000000
O    -2.565000000    -2.749000000     6.271000000
H    -1.673000000    -2.427000000     6.141000000
H    -3.125000000    -2.023000000     5.998000000
