215
-1450.42206
C    -3.163000000    -3.933000000     1.808000000
H    -2.482000000    -4.693000000     1.431000000
C    -3.614000000    -2.865000000     0.971000000
C    -4.464000000    -1.905000000     1.527000000
H    -4.763000000    -1.071000000     0.898000000
C    -3.156000000    -2.687000000    -0.462000000
O    -2.686000000    -3.947000000    -0.998000000
H    -2.352000000    -1.943000000    -0.562000000
O    -4.225000000    -2.308000000    -1.293000000
C    -3.916000000    -1.378000000    -2.263000000
C    -4.057000000    -0.070000000    -1.901000000
H    -4.573000000     0.104000000    -0.961000000
C    -3.604000000     0.969000000    -2.761000000
O    -3.785000000     2.253000000    -2.279000000
C    -2.983000000     0.716000000    -3.965000000
C    -2.355000000     1.852000000    -4.792000000
H    -2.188000000     1.597000000    -5.841000000
C    -0.988000000     2.325000000    -4.301000000
C     0.138000000     1.604000000    -4.721000000
H     0.089000000     0.774000000    -5.421000000
H    -3.013000000     2.710000000    -4.941000000
C    -2.662000000    -0.669000000    -4.218000000
H    -2.119000000    -0.976000000    -5.108000000
C    -3.167000000    -1.642000000    -3.419000000
C    -2.741000000    -3.091000000    -3.734000000
H    -2.565000000    -3.132000000    -4.811000000
H    -3.544000000    -3.814000000    -3.577000000
C    -1.434000000    -3.533000000    -3.029000000
C    -0.219000000    -3.466000000    -3.669000000
H    -0.148000000    -3.026000000    -4.660000000
C    -1.538000000    -4.019000000    -1.730000000
C    -0.423000000    -4.392000000    -0.999000000
H    -0.438000000    -4.719000000     0.037000000
C     0.883000000    -4.280000000    -1.631000000
O     1.908000000    -4.488000000    -0.795000000
C     2.720000000    -3.360000000    -0.391000000
C     3.055000000    -3.414000000     1.096000000
C     4.009000000    -2.624000000     1.658000000
H     4.661000000    -2.081000000     0.979000000
C     2.235000000    -4.224000000     1.914000000
H     1.446000000    -4.859000000     1.519000000
O     3.897000000    -3.161000000    -1.174000000
H     2.206000000    -2.389000000    -0.441000000
C     0.974000000    -3.894000000    -2.986000000
C     2.376000000    -3.732000000    -3.628000000
H     2.279000000    -3.827000000    -4.712000000
H     3.046000000    -4.486000000    -3.209000000
C     2.937000000    -2.359000000    -3.206000000
C     2.640000000    -1.223000000    -4.009000000
H     1.971000000    -1.377000000    -4.851000000
C     3.763000000    -2.124000000    -2.116000000
C     4.089000000    -0.900000000    -1.734000000
H     4.615000000    -0.716000000    -0.800000000
C     3.660000000     0.225000000    -2.435000000
O     4.116000000     1.433000000    -1.962000000
C     3.161000000     2.322000000    -1.437000000
C     3.732000000     3.054000000    -0.189000000
C     4.892000000     2.572000000     0.462000000
H     5.393000000     1.661000000     0.146000000
C     3.140000000     4.249000000     0.237000000
H     2.249000000     4.658000000    -0.233000000
O     2.759000000     3.185000000    -2.553000000
H     2.341000000     1.675000000    -1.094000000
C     2.955000000     0.034000000    -3.624000000
C     2.610000000     1.245000000    -4.564000000
H     2.498000000     0.866000000    -5.582000000
H     3.440000000     1.953000000    -4.618000000
C     1.378000000     2.002000000    -4.154000000
C     1.542000000     2.996000000    -3.224000000
C     0.399000000     3.706000000    -2.808000000
H     0.393000000     4.381000000    -1.956000000
C    -0.840000000     3.191000000    -3.246000000
O    -2.005000000     3.768000000    -2.686000000
C    -2.645000000     2.932000000    -1.646000000
H    -1.940000000     2.147000000    -1.337000000
C    -3.073000000     3.657000000    -0.388000000
C    -4.193000000     3.302000000     0.378000000
H    -4.845000000     2.492000000     0.063000000
C    -2.394000000     4.803000000     0.093000000
H    -1.584000000     5.277000000    -0.455000000
C    -2.594000000     5.392000000     1.340000000
O    -1.941000000     6.571000000     1.729000000
C    -3.629000000     4.905000000     2.100000000
H    -3.840000000     5.335000000     3.075000000
C    -4.452000000     3.897000000     1.635000000
O    -5.591000000     3.532000000     2.275000000
C    -6.101000000     2.331000000     2.209000000
C    -5.544000000     1.256000000     2.882000000
H    -4.711000000     1.391000000     3.567000000
C    -7.237000000     2.144000000     1.424000000
H    -7.743000000     2.962000000     0.917000000
C    -7.877000000     0.889000000     1.416000000
H    -8.722000000     0.725000000     0.752000000
C    -7.292000000    -0.199000000     2.099000000
H    -7.776000000    -1.172000000     2.060000000
C    -6.125000000    -0.018000000     2.800000000
O    -5.595000000    -1.035000000     3.548000000
C    -4.921000000    -2.039000000     2.848000000
C    -4.557000000    -3.205000000     3.591000000
H    -4.898000000    -3.191000000     4.623000000
C    -3.715000000    -4.137000000     3.054000000
O    -3.332000000    -5.280000000     3.804000000
C    -1.973000000    -5.748000000     3.764000000
C    -0.865000000    -5.022000000     4.093000000
H    -0.959000000    -3.992000000     4.427000000
C    -1.829000000    -6.996000000     3.299000000
H    -2.687000000    -7.650000000     3.168000000
C    -0.568000000    -7.580000000     3.154000000
H    -0.488000000    -8.594000000     2.770000000
C     0.551000000    -6.883000000     3.459000000
H     1.523000000    -7.369000000     3.412000000
C     0.417000000    -5.574000000     3.943000000
O     1.536000000    -4.825000000     4.267000000
C     2.333000000    -4.110000000     3.330000000
C     3.347000000    -3.329000000     3.878000000
H     3.432000000    -3.309000000     4.962000000
C     4.213000000    -2.603000000     3.076000000
O     5.046000000    -1.681000000     3.710000000
C     5.966000000    -0.814000000     3.198000000
C     5.708000000     0.588000000     3.215000000
H     4.672000000     0.862000000     3.399000000
C     7.241000000    -1.287000000     2.736000000
H     7.397000000    -2.358000000     2.642000000
C     8.078000000    -0.417000000     2.083000000
H     8.844000000    -0.994000000     1.571000000
C     7.800000000     0.942000000     1.945000000
H     8.592000000     1.589000000     1.575000000
C     6.616000000     1.433000000     2.498000000
O     6.398000000     2.719000000     2.333000000
C     5.331000000     3.213000000     1.642000000
C     4.634000000     4.330000000     2.146000000
H     5.034000000     4.825000000     3.027000000
C     3.477000000     4.779000000     1.457000000
O     2.768000000     5.791000000     2.067000000
C     1.797000000     6.548000000     1.448000000
C     1.987000000     7.412000000     0.390000000
H     2.985000000     7.642000000     0.024000000
C     0.838000000     8.029000000    -0.134000000
H     1.002000000     8.752000000    -0.929000000
C    -0.471000000     7.851000000     0.422000000
H    -1.351000000     8.366000000     0.045000000
C    -0.631000000     6.802000000     1.308000000
C     0.500000000     6.235000000     1.916000000
H     0.288000000     5.454000000     2.641000000
C    -0.350000000    -1.714000000     2.476000000
H    -0.091000000    -2.576000000     3.085000000
C    -0.134000000    -1.687000000     1.085000000
H     0.053000000    -2.564000000     0.471000000
C    -0.218000000    -0.509000000     0.406000000
H     0.034000000    -0.382000000    -0.666000000
C    -0.727000000     0.609000000     1.073000000
H    -0.833000000     1.535000000     0.515000000
C    -0.952000000     0.590000000     2.432000000
H    -1.431000000     1.419000000     2.946000000
C    -0.797000000    -0.589000000     3.165000000
C    -0.977000000    -0.600000000     4.679000000
O    -1.154000000     0.405000000     5.321000000
O    -0.969000000    -1.604000000     5.348000000
O     2.385000000     0.400000000     2.054000000
H     2.820000000    -0.041000000     2.783000000
H     1.587000000    -0.108000000     1.908000000
O    -2.633000000    -3.806000000     8.968000000
H    -2.693000000    -3.571000000     8.042000000
H    -2.257000000    -4.686000000     8.968000000
O    -5.044000000     1.121000000     8.212000000
H    -4.151000000     0.783000000     8.147000000
H    -5.470000000     0.829000000     7.406000000
O    -4.695000000     4.306000000     5.280000000
H    -4.203000000     3.501000000     5.121000000
H    -5.343000000     4.064000000     5.941000000
O    -2.802000000     2.479000000     5.143000000
H    -2.167000000     3.194000000     5.109000000
H    -2.299000000     1.725000000     5.449000000
O    -2.635000000     0.025000000     7.702000000
H    -1.755000000     0.067000000     8.076000000
H    -2.491000000    -0.126000000     6.768000000
O     0.160000000    -2.700000000     7.438000000
H    -0.326000000    -3.518000000     7.548000000
H    -0.203000000    -2.311000000     6.642000000
O    -4.398000000    -5.448000000     6.740000000
H    -4.541000000    -5.278000000     7.671000000
H    -3.797000000    -4.757000000     6.460000000
O     2.820000000    -1.698000000     7.146000000
H     1.916000000    -1.933000000     7.357000000
H     3.351000000    -2.336000000     7.623000000
O     2.692000000    -0.229000000     4.774000000
H     2.977000000    -0.700000000     5.557000000
H     1.823000000    -0.582000000     4.584000000
O     0.855000000     2.016000000     6.716000000
H     0.096000000     1.576000000     6.333000000
H     1.134000000     2.640000000     6.047000000
O    -6.437000000     0.185000000     6.093000000
H    -6.446000000    -0.373000000     5.315000000
H    -7.183000000     0.773000000     5.974000000
O     2.802000000     2.841000000     4.471000000
H     2.608000000     1.908000000     4.554000000
H     3.472000000     3.007000000     5.134000000
O    -0.407000000     4.092000000     4.687000000
H     0.382000000     4.614000000     4.835000000
H    -0.308000000     3.754000000     3.797000000
O    -2.330000000     0.710000000    10.883000000
H    -1.893000000     0.382000000    10.097000000
H    -3.140000000     0.204000000    10.935000000
O     0.896000000     3.106000000     2.198000000
H     1.257000000     2.303000000     2.574000000
H     1.647000000     3.539000000     1.792000000
O    -0.096000000     0.346000000     8.886000000
H     0.221000000     0.831000000     8.124000000
H     0.516000000    -0.385000000     8.976000000
O    -2.873000000    -3.076000000     6.286000000
H    -2.293000000    -2.445000000     5.858000000
H    -3.722000000    -2.636000000     6.318000000
O     3.017000000     1.908000000     8.190000000
H     3.127000000     1.015000000     8.516000000
H     2.202000000     1.881000000     7.689000000
