215
-1470.12346
C    -3.452000000    -4.549000000     1.372000000
H    -2.904000000    -5.373000000     0.921000000
C    -3.635000000    -3.352000000     0.714000000
C    -4.370000000    -2.347000000     1.386000000
H    -4.612000000    -1.378000000     0.957000000
C    -3.217000000    -3.070000000    -0.732000000
O    -2.718000000    -4.171000000    -1.445000000
H    -2.379000000    -2.385000000    -0.535000000
O    -4.220000000    -2.301000000    -1.488000000
C    -3.789000000    -1.223000000    -2.217000000
C    -3.983000000     0.047000000    -1.726000000
H    -4.526000000     0.269000000    -0.810000000
C    -3.559000000     1.181000000    -2.467000000
O    -3.649000000     2.495000000    -2.092000000
C    -2.809000000     1.002000000    -3.658000000
C    -2.261000000     2.206000000    -4.347000000
H    -2.144000000     1.880000000    -5.383000000
C    -0.847000000     2.601000000    -3.955000000
C     0.288000000     1.999000000    -4.606000000
H     0.110000000     1.282000000    -5.403000000
H    -2.885000000     3.101000000    -4.313000000
C    -2.525000000    -0.308000000    -4.065000000
H    -1.910000000    -0.403000000    -4.956000000
C    -2.945000000    -1.415000000    -3.337000000
C    -2.677000000    -2.805000000    -3.853000000
H    -2.707000000    -2.775000000    -4.944000000
H    -3.485000000    -3.441000000    -3.486000000
C    -1.371000000    -3.386000000    -3.302000000
C    -0.088000000    -3.196000000    -3.863000000
H    -0.031000000    -2.748000000    -4.852000000
C    -1.441000000    -4.016000000    -2.031000000
C    -0.321000000    -4.396000000    -1.330000000
H    -0.344000000    -4.878000000    -0.356000000
C     0.923000000    -4.174000000    -1.889000000
O     2.039000000    -4.343000000    -1.144000000
C     2.588000000    -3.196000000    -0.586000000
C     2.951000000    -3.433000000     0.922000000
C     4.096000000    -2.881000000     1.540000000
H     4.801000000    -2.269000000     0.983000000
C     2.016000000    -4.060000000     1.750000000
H     1.103000000    -4.350000000     1.237000000
O     3.787000000    -2.806000000    -1.306000000
H     1.828000000    -2.403000000    -0.530000000
C     1.083000000    -3.530000000    -3.144000000
C     2.370000000    -3.302000000    -3.791000000
H     2.346000000    -3.475000000    -4.869000000
H     3.107000000    -4.047000000    -3.484000000
C     2.984000000    -1.976000000    -3.367000000
C     2.793000000    -0.861000000    -4.183000000
H     2.261000000    -1.065000000    -5.109000000
C     3.721000000    -1.754000000    -2.201000000
C     4.365000000    -0.544000000    -1.943000000
H     4.943000000    -0.370000000    -1.039000000
C     3.987000000     0.549000000    -2.688000000
O     4.362000000     1.771000000    -2.121000000
C     3.292000000     2.587000000    -1.597000000
C     3.629000000     3.147000000    -0.273000000
C     4.245000000     2.382000000     0.702000000
H     4.616000000     1.378000000     0.507000000
C     3.240000000     4.444000000     0.095000000
H     2.884000000     5.131000000    -0.669000000
O     2.862000000     3.611000000    -2.518000000
H     2.429000000     1.941000000    -1.380000000
C     3.233000000     0.422000000    -3.847000000
C     2.790000000     1.622000000    -4.636000000
H     2.638000000     1.152000000    -5.610000000
H     3.620000000     2.307000000    -4.823000000
C     1.566000000     2.302000000    -4.083000000
C     1.645000000     3.321000000    -3.175000000
C     0.515000000     4.049000000    -2.643000000
H     0.679000000     4.770000000    -1.847000000
C    -0.716000000     3.597000000    -2.954000000
O    -1.783000000     4.027000000    -2.228000000
C    -2.466000000     3.059000000    -1.332000000
H    -1.773000000     2.249000000    -1.061000000
C    -2.991000000     3.769000000    -0.121000000
C    -3.993000000     3.196000000     0.653000000
H    -4.502000000     2.275000000     0.381000000
C    -2.407000000     4.967000000     0.342000000
H    -1.626000000     5.368000000    -0.300000000
C    -2.743000000     5.515000000     1.602000000
O    -2.053000000     6.547000000     2.129000000
C    -3.718000000     4.892000000     2.331000000
H    -3.974000000     5.345000000     3.286000000
C    -4.322000000     3.756000000     1.885000000
O    -5.298000000     3.179000000     2.689000000
C    -5.910000000     1.948000000     2.432000000
C    -5.452000000     0.762000000     3.065000000
H    -4.543000000     0.785000000     3.662000000
C    -7.021000000     1.859000000     1.614000000
H    -7.343000000     2.765000000     1.105000000
C    -7.566000000     0.641000000     1.324000000
H    -8.450000000     0.634000000     0.691000000
C    -7.146000000    -0.524000000     2.052000000
H    -7.606000000    -1.469000000     1.775000000
C    -6.109000000    -0.457000000     2.906000000
O    -5.540000000    -1.633000000     3.441000000
C    -4.871000000    -2.565000000     2.691000000
C    -4.488000000    -3.762000000     3.383000000
H    -4.819000000    -3.970000000     4.398000000
C    -3.709000000    -4.656000000     2.684000000
O    -3.308000000    -5.739000000     3.411000000
C    -1.949000000    -6.224000000     3.326000000
C    -0.898000000    -5.299000000     3.467000000
H    -1.257000000    -4.273000000     3.461000000
C    -1.615000000    -7.624000000     3.443000000
H    -2.444000000    -8.326000000     3.488000000
C    -0.272000000    -7.970000000     3.513000000
H     0.021000000    -9.015000000     3.569000000
C     0.728000000    -7.046000000     3.572000000
H     1.747000000    -7.375000000     3.762000000
C     0.415000000    -5.696000000     3.594000000
O     1.363000000    -4.734000000     3.914000000
C     2.315000000    -4.238000000     3.066000000
C     3.475000000    -3.712000000     3.620000000
H     3.580000000    -3.926000000     4.680000000
C     4.379000000    -3.067000000     2.851000000
O     5.501000000    -2.598000000     3.397000000
C     6.119000000    -1.388000000     3.000000000
C     5.373000000    -0.191000000     3.253000000
H     4.438000000    -0.167000000     3.808000000
C     7.323000000    -1.291000000     2.320000000
H     7.914000000    -2.157000000     2.032000000
C     7.827000000    -0.081000000     1.881000000
H     8.831000000    -0.062000000     1.465000000
C     7.115000000     1.076000000     2.178000000
H     7.696000000     1.967000000     1.954000000
C     5.831000000     0.994000000     2.721000000
O     5.040000000     2.083000000     2.896000000
C     4.345000000     2.815000000     2.017000000
C     3.932000000     4.071000000     2.409000000
H     4.066000000     4.414000000     3.431000000
C     3.292000000     4.877000000     1.439000000
O     2.876000000     6.126000000     1.739000000
C     1.593000000     6.670000000     1.480000000
C     1.596000000     7.844000000     0.700000000
H     2.575000000     8.276000000     0.509000000
C     0.469000000     8.523000000     0.288000000
H     0.552000000     9.336000000    -0.429000000
C    -0.743000000     7.988000000     0.783000000
H    -1.699000000     8.429000000     0.513000000
C    -0.790000000     6.924000000     1.647000000
C     0.354000000     6.208000000     1.896000000
H     0.314000000     5.267000000     2.438000000
C     1.043000000    -0.599000000     2.281000000
H     1.984000000    -0.544000000     2.821000000
C     1.042000000    -0.369000000     0.921000000
H     2.029000000    -0.186000000     0.502000000
C    -0.150000000    -0.263000000     0.214000000
H    -0.231000000     0.014000000    -0.875000000
C    -1.331000000    -0.538000000     0.970000000
H    -2.285000000    -0.501000000     0.450000000
C    -1.340000000    -0.724000000     2.327000000
H    -2.301000000    -0.906000000     2.803000000
C    -0.129000000    -0.775000000     3.022000000
C    -0.155000000    -0.917000000     4.575000000
O    -1.190000000    -0.627000000     5.187000000
O     0.917000000    -0.893000000     5.180000000
O    -0.034000000     2.241000000     2.440000000
H    -0.281000000     1.434000000     1.989000000
H    -0.841000000     2.536000000     2.862000000
O    -0.844000000    -4.228000000     6.679000000
H    -0.094000000    -3.635000000     6.640000000
H    -0.484000000    -5.085000000     6.451000000
O    -4.268000000     3.025000000     6.747000000
H    -4.065000000     2.176000000     6.355000000
H    -5.000000000     2.847000000     7.337000000
O     5.384000000    -0.424000000     6.472000000
H     5.278000000    -1.214000000     7.003000000
H     4.492000000    -0.182000000     6.223000000
O    -6.101000000    -0.239000000     6.951000000
H    -6.644000000    -0.765000000     6.364000000
H    -5.343000000     0.006000000     6.420000000
O    -1.076000000    -3.007000000     9.668000000
H    -0.439000000    -3.717000000     9.589000000
H    -0.729000000    -2.312000000     9.108000000
O     1.577000000     2.962000000     4.394000000
H     0.916000000     2.943000000     5.085000000
H     1.103000000     2.712000000     3.601000000
O    -2.153000000     0.724000000     8.856000000
H    -2.164000000     0.605000000     9.805000000
H    -1.246000000     0.549000000     8.603000000
O     0.047000000     2.098000000     6.556000000
H     0.152000000     1.192000000     6.264000000
H    -0.262000000     2.024000000     7.459000000
O     3.640000000    -4.592000000     7.792000000
H     3.012000000    -4.003000000     7.373000000
H     3.156000000    -5.409000000     7.915000000
O    -3.249000000     0.469000000     6.053000000
H    -2.928000000     0.609000000     6.944000000
H    -2.496000000     0.114000000     5.581000000
O    -3.253000000    -3.090000000     7.331000000
H    -3.023000000    -2.495000000     6.618000000
H    -2.546000000    -3.735000000     7.344000000
O     2.882000000     0.842000000     5.762000000
H     2.598000000     1.618000000     5.279000000
H     2.235000000     0.172000000     5.539000000
O     2.745000000     0.622000000     8.862000000
H     2.706000000     0.540000000     7.910000000
H     1.907000000     1.017000000     9.104000000
O    -4.491000000    -0.782000000     9.480000000
H    -3.759000000    -1.192000000     9.018000000
H    -5.102000000    -0.532000000     8.787000000
O    -2.162000000     2.682000000     4.094000000
H    -1.664000000     2.342000000     4.838000000
H    -2.869000000     3.191000000     4.491000000
O    -0.286000000    -1.137000000     7.740000000
H    -1.147000000    -1.193000000     7.325000000
H     0.323000000    -1.008000000     7.013000000
O     1.693000000    -3.238000000     6.345000000
H     1.368000000    -2.338000000     6.374000000
H     1.637000000    -3.484000000     5.422000000
O     0.397000000     2.011000000     9.329000000
H     0.235000000     1.889000000    10.264000000
H     0.771000000     2.890000000     9.264000000
