215
-1442.75440
C    -3.425000000    -3.934000000     2.029000000
H    -2.901000000    -4.769000000     1.570000000
C    -3.910000000    -2.894000000     1.184000000
C    -4.348000000    -1.704000000     1.788000000
H    -4.580000000    -0.817000000     1.204000000
C    -3.397000000    -2.756000000    -0.314000000
O    -2.913000000    -3.947000000    -0.808000000
H    -2.624000000    -1.976000000    -0.366000000
O    -4.403000000    -2.181000000    -1.085000000
C    -4.030000000    -1.333000000    -2.193000000
C    -4.259000000     0.027000000    -1.995000000
H    -4.793000000     0.267000000    -1.079000000
C    -3.657000000     1.013000000    -2.870000000
O    -3.724000000     2.356000000    -2.531000000
C    -3.027000000     0.568000000    -4.052000000
C    -2.389000000     1.577000000    -5.068000000
H    -2.353000000     1.039000000    -6.018000000
C    -0.975000000     2.044000000    -4.582000000
C     0.191000000     1.395000000    -4.940000000
H     0.155000000     0.581000000    -5.660000000
H    -2.984000000     2.486000000    -5.183000000
C    -2.867000000    -0.792000000    -4.239000000
H    -2.419000000    -1.126000000    -5.171000000
C    -3.364000000    -1.760000000    -3.310000000
C    -2.955000000    -3.173000000    -3.574000000
H    -3.061000000    -3.334000000    -4.649000000
H    -3.768000000    -3.781000000    -3.171000000
C    -1.697000000    -3.545000000    -2.874000000
C    -0.467000000    -3.557000000    -3.521000000
H    -0.309000000    -3.352000000    -4.577000000
C    -1.735000000    -3.939000000    -1.554000000
C    -0.604000000    -4.401000000    -0.931000000
H    -0.737000000    -4.645000000     0.120000000
C     0.588000000    -4.467000000    -1.555000000
O     1.762000000    -4.840000000    -0.816000000
C     2.569000000    -3.736000000    -0.352000000
C     3.061000000    -3.977000000     1.090000000
C     4.301000000    -3.587000000     1.581000000
H     5.101000000    -3.196000000     0.956000000
C     2.132000000    -4.355000000     2.087000000
H     1.121000000    -4.661000000     1.828000000
O     3.627000000    -3.443000000    -1.282000000
H     1.861000000    -2.900000000    -0.254000000
C     0.680000000    -4.012000000    -2.860000000
C     2.078000000    -3.831000000    -3.524000000
H     1.945000000    -3.988000000    -4.597000000
H     2.768000000    -4.637000000    -3.264000000
C     2.559000000    -2.467000000    -3.231000000
C     2.285000000    -1.359000000    -4.029000000
H     1.646000000    -1.423000000    -4.906000000
C     3.354000000    -2.323000000    -2.041000000
C     3.799000000    -1.089000000    -1.696000000
H     4.382000000    -0.898000000    -0.799000000
C     3.497000000     0.035000000    -2.494000000
O     3.858000000     1.255000000    -1.896000000
C     2.832000000     2.132000000    -1.531000000
C     3.310000000     2.754000000    -0.252000000
C     3.839000000     1.948000000     0.839000000
H     4.023000000     0.884000000     0.712000000
C     3.109000000     4.142000000     0.021000000
H     2.857000000     4.893000000    -0.723000000
O     2.607000000     3.084000000    -2.608000000
H     1.897000000     1.597000000    -1.310000000
C     2.845000000    -0.109000000    -3.715000000
C     2.679000000     1.037000000    -4.742000000
H     2.730000000     0.763000000    -5.798000000
H     3.539000000     1.704000000    -4.649000000
C     1.420000000     1.775000000    -4.306000000
C     1.484000000     2.771000000    -3.361000000
C     0.316000000     3.461000000    -3.133000000
H     0.382000000     4.164000000    -2.307000000
C    -0.872000000     3.110000000    -3.734000000
O    -1.912000000     3.757000000    -3.229000000
C    -2.477000000     3.021000000    -2.091000000
H    -1.723000000     2.265000000    -1.823000000
C    -2.703000000     3.854000000    -0.793000000
C    -3.692000000     3.445000000     0.000000000
H    -4.421000000     2.697000000    -0.301000000
C    -1.897000000     5.011000000    -0.467000000
H    -1.083000000     5.311000000    -1.122000000
C    -2.258000000     5.802000000     0.584000000
O    -1.523000000     6.908000000     1.042000000
C    -3.416000000     5.435000000     1.346000000
H    -3.722000000     6.070000000     2.174000000
C    -4.081000000     4.266000000     1.107000000
O    -5.271000000     4.003000000     1.736000000
C    -5.807000000     2.755000000     1.976000000
C    -5.170000000     1.877000000     2.820000000
H    -4.326000000     2.221000000     3.412000000
C    -6.910000000     2.355000000     1.266000000
H    -7.580000000     3.114000000     0.870000000
C    -7.362000000     1.071000000     1.320000000
H    -8.208000000     0.671000000     0.766000000
C    -6.689000000     0.121000000     2.110000000
H    -6.975000000    -0.922000000     2.002000000
C    -5.627000000     0.544000000     2.941000000
O    -4.870000000    -0.360000000     3.661000000
C    -4.358000000    -1.524000000     3.141000000
C    -3.992000000    -2.560000000     3.985000000
H    -4.062000000    -2.433000000     5.063000000
C    -3.570000000    -3.774000000     3.417000000
O    -3.191000000    -4.847000000     4.112000000
C    -1.968000000    -5.471000000     4.136000000
C    -0.842000000    -4.628000000     4.180000000
H    -0.881000000    -3.544000000     4.250000000
C    -1.910000000    -6.837000000     4.061000000
H    -2.774000000    -7.496000000     4.105000000
C    -0.689000000    -7.445000000     4.077000000
H    -0.579000000    -8.526000000     4.069000000
C     0.515000000    -6.707000000     4.114000000
H     1.475000000    -7.211000000     4.195000000
C     0.396000000    -5.303000000     4.217000000
O     1.578000000    -4.639000000     4.391000000
C     2.496000000    -4.341000000     3.442000000
C     3.778000000    -3.833000000     3.892000000
H     4.003000000    -3.668000000     4.943000000
C     4.612000000    -3.397000000     2.932000000
O     5.829000000    -2.856000000     3.247000000
C     6.270000000    -1.549000000     2.998000000
C     5.420000000    -0.479000000     3.191000000
H     4.468000000    -0.714000000     3.661000000
C     7.566000000    -1.281000000     2.521000000
H     8.229000000    -2.128000000     2.362000000
C     7.966000000     0.055000000     2.221000000
H     8.976000000     0.277000000     1.887000000
C     6.984000000     1.056000000     2.308000000
H     7.204000000     2.099000000     2.095000000
C     5.744000000     0.808000000     2.857000000
O     4.748000000     1.799000000     3.081000000
C     4.198000000     2.521000000     2.064000000
C     3.961000000     3.866000000     2.289000000
H     4.213000000     4.461000000     3.163000000
C     3.382000000     4.626000000     1.281000000
O     3.186000000     5.991000000     1.648000000
C     2.119000000     6.772000000     1.070000000
C     2.440000000     8.011000000     0.625000000
H     3.472000000     8.340000000     0.541000000
C     1.478000000     8.916000000     0.213000000
H     1.793000000     9.916000000    -0.075000000
C     0.126000000     8.472000000     0.309000000
H    -0.712000000     9.136000000     0.115000000
C    -0.253000000     7.210000000     0.706000000
C     0.762000000     6.327000000     1.087000000
H     0.449000000     5.385000000     1.531000000
C     1.286000000    -0.696000000     2.689000000
H     2.273000000    -0.629000000     3.140000000
C     1.171000000    -0.569000000     1.289000000
H     2.061000000    -0.593000000     0.666000000
C    -0.049000000    -0.422000000     0.612000000
H    -0.200000000    -0.373000000    -0.463000000
C    -1.186000000    -0.443000000     1.411000000
H    -2.208000000    -0.216000000     1.117000000
C    -1.097000000    -0.764000000     2.765000000
H    -1.969000000    -0.722000000     3.412000000
C     0.137000000    -0.780000000     3.409000000
C     0.261000000    -0.783000000     4.911000000
O    -0.643000000    -0.090000000     5.486000000
O     1.227000000    -1.176000000     5.531000000
O     0.393000000     3.029000000     2.488000000
H     0.206000000     2.146000000     2.170000000
H    -0.446000000     3.347000000     2.820000000
O    -2.473000000    -3.760000000     6.983000000
H    -1.867000000    -4.407000000     7.343000000
H    -3.342000000    -4.109000000     7.180000000
O     5.954000000     0.283000000     6.274000000
H     6.004000000    -0.450000000     6.888000000
H     5.015000000     0.428000000     6.151000000
O    -0.746000000    -5.778000000     7.565000000
H    -1.368000000    -6.323000000     8.045000000
H    -0.916000000    -5.973000000     6.644000000
O    -4.141000000     0.673000000     8.158000000
H    -4.715000000    -0.092000000     8.159000000
H    -3.256000000     0.309000000     8.128000000
O     0.958000000     3.226000000     5.567000000
H     1.005000000     2.609000000     6.297000000
H     0.369000000     2.809000000     4.938000000
O     3.640000000     4.003000000     7.102000000
H     3.030000000     3.555000000     6.516000000
H     4.441000000     3.481000000     7.060000000
O     0.885000000     1.271000000     7.553000000
H     0.630000000     0.772000000     6.778000000
H     0.208000000     1.072000000     8.200000000
O     3.825000000    -4.121000000     8.843000000
H     3.271000000    -3.395000000     8.555000000
H     3.323000000    -4.906000000     8.625000000
O     1.596000000     5.746000000     4.295000000
H     1.574000000     4.851000000     4.636000000
H     1.229000000     5.676000000     3.414000000
O    -3.057000000     1.361000000     5.538000000
H    -2.330000000     0.744000000     5.620000000
H    -3.625000000     1.162000000     6.283000000
O    -2.234000000    -0.878000000     7.369000000
H    -1.603000000    -0.651000000     6.686000000
H    -2.341000000    -1.826000000     7.291000000
O     3.425000000    -0.262000000     6.744000000
H     2.998000000     0.103000000     7.520000000
H     2.724000000    -0.713000000     6.274000000
O    -0.668000000     4.438000000     7.559000000
H    -0.252000000     3.977000000     6.830000000
H    -1.427000000     3.899000000     7.780000000
O     1.963000000    -2.046000000     9.588000000
H     1.671000000    -2.778000000    10.132000000
H     1.966000000    -2.397000000     8.697000000
O     4.031000000    -0.243000000     9.573000000
H     3.380000000    -0.944000000     9.534000000
H     4.793000000    -0.598000000     9.115000000
O    -2.004000000     3.388000000     4.251000000
H    -2.339000000     2.567000000     4.613000000
H    -2.607000000     4.056000000     4.576000000
O    -0.986000000    -1.086000000     9.679000000
H    -1.364000000    -1.336000000     8.836000000
H    -0.159000000    -1.566000000     9.724000000
O     2.005000000    -3.128000000     7.012000000
H     1.655000000    -2.439000000     6.448000000
H     2.099000000    -3.886000000     6.434000000
