215
-1472.39753
C    -4.406000000     2.629000000    -1.435000000
H    -4.087000000     2.501000000    -2.466000000
C    -3.528000000     3.254000000    -0.519000000
C    -3.830000000     3.293000000     0.835000000
H    -3.074000000     3.578000000     1.561000000
C    -2.059000000     3.527000000    -0.857000000
O    -1.986000000     3.870000000    -2.270000000
H    -1.388000000     2.694000000    -0.602000000
O    -1.574000000     4.636000000    -0.165000000
C    -0.276000000     4.528000000     0.261000000
C     0.022000000     4.118000000     1.588000000
H    -0.792000000     3.996000000     2.298000000
C     1.332000000     3.892000000     2.051000000
O     1.524000000     3.369000000     3.344000000
C     2.369000000     4.099000000     1.133000000
C     3.848000000     3.702000000     1.484000000
H     4.586000000     4.238000000     0.885000000
C     3.971000000     2.247000000     1.313000000
C     4.521000000     1.779000000     0.174000000
H     4.854000000     2.470000000    -0.597000000
H     3.969000000     3.951000000     2.541000000
C     2.068000000     4.554000000    -0.172000000
H     2.982000000     4.689000000    -0.744000000
C     0.802000000     4.780000000    -0.658000000
C     0.610000000     5.086000000    -2.141000000
H     1.405000000     5.718000000    -2.542000000
H    -0.304000000     5.683000000    -2.148000000
C     0.283000000     3.882000000    -3.062000000
C     1.270000000     3.161000000    -3.675000000
H     2.289000000     3.517000000    -3.550000000
C    -0.985000000     3.291000000    -2.998000000
C    -1.291000000     2.117000000    -3.713000000
H    -2.283000000     1.685000000    -3.612000000
C    -0.246000000     1.503000000    -4.483000000
O    -0.513000000     0.265000000    -5.062000000
C    -0.224000000    -0.873000000    -4.224000000
C    -1.357000000    -1.877000000    -4.019000000
C    -1.123000000    -3.210000000    -3.678000000
H    -0.101000000    -3.522000000    -3.477000000
C    -2.713000000    -1.402000000    -4.180000000
H    -2.914000000    -0.373000000    -4.468000000
O     1.053000000    -1.408000000    -4.754000000
H     0.090000000    -0.590000000    -3.208000000
C     1.028000000     2.006000000    -4.378000000
C     2.207000000     1.253000000    -4.979000000
H     3.051000000     1.923000000    -5.157000000
H     1.801000000     0.807000000    -5.890000000
C     2.796000000     0.150000000    -4.085000000
C     3.939000000     0.459000000    -3.305000000
H     4.443000000     1.418000000    -3.397000000
C     2.208000000    -1.121000000    -4.032000000
C     2.667000000    -2.072000000    -3.197000000
H     2.086000000    -2.990000000    -3.164000000
C     3.699000000    -1.758000000    -2.305000000
O     3.944000000    -2.766000000    -1.356000000
C     3.411000000    -2.437000000    -0.075000000
C     2.836000000    -3.679000000     0.698000000
C     2.129000000    -4.631000000    -0.042000000
H     2.015000000    -4.517000000    -1.116000000
C     2.774000000    -3.732000000     2.111000000
H     3.286000000    -3.003000000     2.734000000
O     4.392000000    -1.856000000     0.731000000
H     2.622000000    -1.683000000    -0.220000000
C     4.348000000    -0.503000000    -2.379000000
C     5.388000000    -0.030000000    -1.314000000
H     5.981000000     0.793000000    -1.719000000
H     6.143000000    -0.766000000    -1.028000000
C     4.705000000     0.391000000    -0.008000000
C     4.283000000    -0.515000000     1.019000000
C     3.774000000    -0.046000000     2.177000000
H     3.395000000    -0.567000000     3.052000000
C     3.665000000     1.316000000     2.316000000
O     3.127000000     1.760000000     3.511000000
C     1.663000000     1.939000000     3.433000000
H     1.351000000     1.497000000     2.475000000
C     0.915000000     1.442000000     4.690000000
C    -0.342000000     1.903000000     5.035000000
H    -0.665000000     2.789000000     4.495000000
C     1.422000000     0.416000000     5.524000000
H     2.452000000     0.121000000     5.343000000
C     0.600000000    -0.310000000     6.346000000
O     0.975000000    -1.436000000     6.966000000
C    -0.777000000     0.129000000     6.542000000
H    -1.384000000    -0.532000000     7.156000000
C    -1.217000000     1.272000000     5.915000000
O    -2.550000000     1.649000000     6.138000000
C    -3.223000000     2.591000000     5.383000000
C    -4.110000000     2.190000000     4.388000000
H    -4.247000000     1.136000000     4.160000000
C    -3.040000000     3.967000000     5.588000000
H    -2.417000000     4.247000000     6.434000000
C    -3.782000000     4.969000000     4.842000000
H    -3.602000000     5.955000000     5.262000000
C    -4.644000000     4.558000000     3.843000000
H    -5.236000000     5.237000000     3.235000000
C    -4.764000000     3.173000000     3.600000000
O    -5.564000000     2.759000000     2.535000000
C    -5.163000000     2.864000000     1.201000000
C    -6.064000000     2.442000000     0.334000000
H    -7.080000000     2.147000000     0.585000000
C    -5.674000000     2.232000000    -1.009000000
O    -6.691000000     1.739000000    -1.890000000
C    -6.434000000     1.142000000    -3.079000000
C    -5.881000000    -0.098000000    -3.027000000
H    -5.622000000    -0.456000000    -2.033000000
C    -6.683000000     1.745000000    -4.283000000
H    -7.046000000     2.767000000    -4.200000000
C    -6.393000000     1.081000000    -5.515000000
H    -6.448000000     1.587000000    -6.476000000
C    -5.836000000    -0.209000000    -5.454000000
H    -5.561000000    -0.713000000    -6.376000000
C    -5.550000000    -0.756000000    -4.207000000
O    -5.027000000    -2.003000000    -4.196000000
C    -3.711000000    -2.305000000    -4.089000000
C    -3.401000000    -3.617000000    -3.949000000
H    -4.260000000    -4.282000000    -3.917000000
C    -2.144000000    -4.120000000    -3.762000000
O    -1.939000000    -5.500000000    -3.572000000
C    -0.755000000    -5.974000000    -3.153000000
C    -0.480000000    -6.109000000    -1.777000000
H    -1.268000000    -5.829000000    -1.082000000
C     0.210000000    -6.379000000    -4.038000000
H    -0.004000000    -6.532000000    -5.093000000
C     1.444000000    -6.897000000    -3.648000000
H     2.222000000    -7.184000000    -4.351000000
C     1.778000000    -6.923000000    -2.340000000
H     2.768000000    -7.204000000    -1.991000000
C     0.785000000    -6.549000000    -1.396000000
O     1.050000000    -6.761000000    -0.014000000
C     1.690000000    -5.749000000     0.635000000
C     1.709000000    -5.801000000     2.021000000
H     1.359000000    -6.736000000     2.452000000
C     2.320000000    -4.829000000     2.790000000
O     2.513000000    -5.045000000     4.155000000
C     2.786000000    -3.978000000     5.024000000
C     4.066000000    -3.721000000     5.520000000
H     4.877000000    -4.400000000     5.268000000
C     4.268000000    -2.824000000     6.533000000
H     5.288000000    -2.800000000     6.907000000
C     3.264000000    -2.034000000     7.075000000
H     3.454000000    -1.328000000     7.879000000
C     2.027000000    -2.156000000     6.486000000
C     1.796000000    -3.119000000     5.460000000
H     0.761000000    -3.188000000     5.136000000
C    -0.694000000    -2.931000000     1.123000000
H    -0.582000000    -3.993000000     0.925000000
C    -0.254000000    -1.924000000     0.229000000
H     0.129000000    -2.190000000    -0.752000000
C    -0.272000000    -0.592000000     0.636000000
H     0.149000000     0.204000000    -0.002000000
C    -0.859000000    -0.270000000     1.832000000
H    -0.992000000     0.782000000     2.068000000
C    -1.296000000    -1.215000000     2.715000000
H    -1.773000000    -0.954000000     3.657000000
C    -1.144000000    -2.586000000     2.382000000
C    -1.655000000    -3.618000000     3.431000000
O    -2.150000000    -3.184000000     4.502000000
O    -1.475000000    -4.808000000     3.287000000
O    -3.665000000    -8.893000000     6.056000000
H    -3.563000000    -8.298000000     5.314000000
H    -2.773000000    -9.172000000     6.265000000
O    -2.502000000    -6.254000000     1.241000000
H    -2.048000000    -7.095000000     1.184000000
H    -1.937000000    -5.715000000     1.795000000
O    -1.854000000    -4.297000000     6.778000000
H    -1.389000000    -5.098000000     6.532000000
H    -2.086000000    -3.890000000     5.943000000
O    -5.223000000    -1.884000000     1.254000000
H    -6.126000000    -1.573000000     1.183000000
H    -4.734000000    -1.345000000     0.632000000
O    -6.682000000     0.570000000     4.862000000
H    -6.169000000    -0.218000000     4.684000000
H    -6.940000000     0.485000000     5.780000000
O     1.042000000    -6.744000000     7.899000000
H     0.585000000    -6.027000000     8.338000000
H     0.704000000    -6.732000000     7.004000000
O    -1.133000000    -8.738000000     1.078000000
H    -0.373000000    -8.810000000     0.500000000
H    -1.877000000    -8.976000000     0.526000000
O    -3.066000000    -2.765000000    -0.765000000
H    -2.640000000    -2.336000000    -0.024000000
H    -2.478000000    -2.606000000    -1.504000000
O    -3.200000000    -4.831000000     9.126000000
H    -2.870000000    -4.651000000     8.246000000
H    -3.997000000    -4.305000000     9.195000000
O    -4.612000000    -4.427000000     4.900000000
H    -4.943000000    -4.687000000     4.040000000
H    -3.734000000    -4.087000000     4.727000000
O    -4.863000000    -4.889000000    -0.255000000
H    -4.420000000    -4.043000000    -0.191000000
H    -4.404000000    -5.449000000     0.371000000
O    -0.177000000    -6.480000000     5.210000000
H    -0.826000000    -7.155000000     5.013000000
H    -0.192000000    -5.902000000     4.447000000
O    -4.728000000    -1.464000000     4.316000000
H    -3.905000000    -1.955000000     4.325000000
H    -5.034000000    -1.528000000     3.412000000
O    -5.826000000    -4.241000000     2.542000000
H    -5.302000000    -3.552000000     2.134000000
H    -6.578000000    -3.780000000     2.915000000
O    -4.892000000    -1.223000000     7.191000000
H    -4.800000000    -1.308000000     6.242000000
H    -5.179000000    -2.088000000     7.482000000
O    -5.558000000    -7.234000000     2.600000000
H    -5.476000000    -7.592000000     1.716000000
H    -5.581000000    -6.286000000     2.473000000
O    -2.759000000    -7.086000000     4.115000000
H    -2.303000000    -6.264000000     3.936000000
H    -3.532000000    -7.058000000     3.551000000
O    -5.729000000    -3.744000000     7.165000000
H    -5.142000000    -4.181000000     6.548000000
H    -6.449000000    -3.422000000     6.624000000
O     0.021000000    -4.159000000     8.746000000
H    -0.302000000    -3.651000000     9.489000000
H    -0.584000000    -3.954000000     8.034000000
