215
-1460.83432
C    -2.645000000    -4.719000000     1.650000000
H    -1.761000000    -5.192000000     1.230000000
C    -3.352000000    -3.750000000     0.947000000
C    -4.420000000    -3.096000000     1.600000000
H    -4.954000000    -2.357000000     1.007000000
C    -2.880000000    -3.311000000    -0.447000000
O    -2.344000000    -4.404000000    -1.274000000
H    -2.082000000    -2.577000000    -0.259000000
O    -4.008000000    -2.876000000    -1.193000000
C    -3.793000000    -1.710000000    -1.889000000
C    -4.131000000    -0.528000000    -1.295000000
H    -4.676000000    -0.484000000    -0.355000000
C    -3.853000000     0.680000000    -1.962000000
O    -4.008000000     1.883000000    -1.250000000
C    -3.393000000     0.694000000    -3.292000000
C    -3.172000000     1.972000000    -4.031000000
H    -3.355000000     1.756000000    -5.086000000
C    -1.812000000     2.622000000    -3.662000000
C    -0.682000000     2.166000000    -4.327000000
H    -0.708000000     1.249000000    -4.911000000
H    -3.982000000     2.662000000    -3.786000000
C    -3.070000000    -0.515000000    -3.930000000
H    -2.880000000    -0.528000000    -5.000000000
C    -3.254000000    -1.709000000    -3.199000000
C    -2.752000000    -3.019000000    -3.854000000
H    -2.691000000    -3.010000000    -4.944000000
H    -3.523000000    -3.752000000    -3.610000000
C    -1.393000000    -3.437000000    -3.277000000
C    -0.265000000    -3.008000000    -3.981000000
H    -0.380000000    -2.484000000    -4.927000000
C    -1.231000000    -4.059000000    -2.017000000
C     0.065000000    -4.329000000    -1.503000000
H     0.278000000    -4.904000000    -0.606000000
C     1.153000000    -3.893000000    -2.241000000
O     2.400000000    -4.031000000    -1.607000000
C     2.935000000    -2.816000000    -1.190000000
C     3.517000000    -3.014000000     0.175000000
C     4.810000000    -2.732000000     0.621000000
H     5.585000000    -2.279000000     0.009000000
C     2.600000000    -3.520000000     1.056000000
H     1.578000000    -3.692000000     0.728000000
O     3.959000000    -2.377000000    -2.217000000
H     2.124000000    -2.073000000    -1.182000000
C     0.972000000    -3.309000000    -3.513000000
C     2.099000000    -2.728000000    -4.385000000
H     1.848000000    -2.531000000    -5.430000000
H     2.895000000    -3.469000000    -4.483000000
C     2.605000000    -1.361000000    -3.885000000
C     2.188000000    -0.187000000    -4.516000000
H     1.449000000    -0.301000000    -5.305000000
C     3.630000000    -1.239000000    -2.965000000
C     3.969000000    -0.009000000    -2.414000000
H     4.542000000     0.122000000    -1.500000000
C     3.347000000     1.158000000    -2.960000000
O     3.653000000     2.295000000    -2.337000000
C     2.610000000     2.994000000    -1.699000000
C     3.178000000     3.646000000    -0.466000000
C     3.935000000     2.886000000     0.433000000
H     4.158000000     1.860000000     0.152000000
C     2.920000000     5.007000000    -0.085000000
H     2.281000000     5.591000000    -0.741000000
O     1.972000000     4.010000000    -2.565000000
H     1.877000000     2.228000000    -1.405000000
C     2.475000000     1.071000000    -4.045000000
C     1.907000000     2.200000000    -4.758000000
H     1.610000000     2.001000000    -5.790000000
H     2.639000000     3.011000000    -4.759000000
C     0.593000000     2.682000000    -4.077000000
C     0.755000000     3.665000000    -3.091000000
C    -0.335000000     4.041000000    -2.298000000
H    -0.205000000     4.750000000    -1.485000000
C    -1.643000000     3.525000000    -2.617000000
O    -2.657000000     3.745000000    -1.694000000
C    -2.886000000     2.643000000    -0.829000000
H    -2.084000000     1.893000000    -0.772000000
C    -3.141000000     3.104000000     0.643000000
C    -4.029000000     2.530000000     1.517000000
H    -4.534000000     1.665000000     1.095000000
C    -2.294000000     4.087000000     1.088000000
H    -1.584000000     4.551000000     0.408000000
C    -2.347000000     4.466000000     2.456000000
O    -1.511000000     5.441000000     2.984000000
C    -3.149000000     3.796000000     3.348000000
H    -3.189000000     3.936000000     4.426000000
C    -4.034000000     2.821000000     2.833000000
O    -4.593000000     1.883000000     3.734000000
C    -5.515000000     0.859000000     3.456000000
C    -5.218000000    -0.464000000     3.749000000
H    -4.428000000    -0.776000000     4.428000000
C    -6.653000000     1.215000000     2.788000000
H    -6.983000000     2.246000000     2.690000000
C    -7.605000000     0.234000000     2.553000000
H    -8.571000000     0.411000000     2.088000000
C    -7.291000000    -1.094000000     2.821000000
H    -8.068000000    -1.825000000     2.611000000
C    -6.098000000    -1.455000000     3.345000000
O    -5.742000000    -2.764000000     3.674000000
C    -4.766000000    -3.406000000     2.942000000
C    -3.964000000    -4.381000000     3.643000000
H    -4.206000000    -4.524000000     4.693000000
C    -3.000000000    -5.042000000     2.925000000
O    -2.291000000    -5.990000000     3.636000000
C    -0.960000000    -6.243000000     3.381000000
C    -0.062000000    -5.145000000     3.380000000
H    -0.376000000    -4.134000000     3.627000000
C    -0.492000000    -7.443000000     2.883000000
H    -1.161000000    -8.300000000     2.862000000
C     0.828000000    -7.572000000     2.447000000
H     1.146000000    -8.470000000     1.925000000
C     1.752000000    -6.502000000     2.466000000
H     2.803000000    -6.613000000     2.213000000
C     1.247000000    -5.328000000     3.016000000
O     2.123000000    -4.283000000     3.237000000
C     3.038000000    -3.808000000     2.349000000
C     4.239000000    -3.314000000     2.886000000
H     4.512000000    -3.373000000     3.937000000
C     5.123000000    -2.693000000     1.981000000
O     6.274000000    -2.084000000     2.443000000
C     6.550000000    -0.798000000     2.123000000
C     5.619000000     0.253000000     2.445000000
H     4.666000000     0.048000000     2.926000000
C     7.726000000    -0.465000000     1.576000000
H     8.399000000    -1.280000000     1.320000000
C     8.120000000     0.887000000     1.356000000
H     9.119000000     1.124000000     1.000000000
C     7.184000000     1.892000000     1.669000000
H     7.451000000     2.936000000     1.527000000
C     5.947000000     1.581000000     2.222000000
O     5.019000000     2.537000000     2.496000000
C     4.436000000     3.408000000     1.609000000
C     4.083000000     4.675000000     1.998000000
H     4.418000000     5.015000000     2.974000000
C     3.366000000     5.510000000     1.141000000
O     2.828000000     6.735000000     1.613000000
C     1.493000000     6.903000000     1.558000000
C     0.943000000     7.951000000     0.805000000
H     1.573000000     8.720000000     0.365000000
C    -0.458000000     8.083000000     0.754000000
H    -0.910000000     8.909000000     0.210000000
C    -1.258000000     7.198000000     1.427000000
H    -2.341000000     7.238000000     1.511000000
C    -0.724000000     6.178000000     2.188000000
C     0.618000000     5.993000000     2.222000000
H     0.990000000     5.233000000     2.905000000
C     1.569000000    -0.421000000     1.820000000
H     2.622000000    -0.443000000     2.089000000
C     1.332000000    -0.203000000     0.443000000
H     2.193000000    -0.090000000    -0.210000000
C     0.015000000    -0.137000000     0.025000000
H    -0.175000000     0.150000000    -0.956000000
C    -1.063000000    -0.354000000     0.928000000
H    -1.995000000    -0.156000000     0.405000000
C    -0.815000000    -0.723000000     2.251000000
H    -1.606000000    -0.922000000     2.970000000
C     0.517000000    -0.725000000     2.708000000
C     0.827000000    -1.145000000     4.133000000
O    -0.098000000    -1.480000000     4.903000000
O     1.942000000    -1.024000000     4.660000000
O     1.007000000     2.431000000     2.452000000
H     0.265000000     2.448000000     3.056000000
H     0.924000000     1.596000000     1.992000000
O    -3.189000000    -4.104000000     8.294000000
H    -3.243000000    -3.310000000     8.825000000
H    -2.612000000    -3.868000000     7.568000000
O     0.532000000     4.477000000     7.399000000
H     1.287000000     4.696000000     6.853000000
H     0.277000000     3.599000000     7.115000000
O     2.457000000     2.283000000     5.044000000
H     1.873000000     1.530000000     5.138000000
H     2.354000000     2.553000000     4.132000000
O     2.948000000     4.743000000     6.185000000
H     2.833000000     3.944000000     5.671000000
H     3.879000000     4.751000000     6.410000000
O     1.080000000    -0.451000000     7.450000000
H     0.860000000    -1.249000000     7.933000000
H     0.989000000    -0.696000000     6.529000000
O     3.498000000    -5.734000000     5.576000000
H     4.203000000    -5.216000000     5.963000000
H     3.933000000    -6.276000000     4.917000000
O    -2.137000000    -0.006000000     6.238000000
H    -1.651000000    -0.675000000     5.756000000
H    -2.460000000    -0.459000000     7.017000000
O    -1.361000000    -3.168000000     6.318000000
H    -0.899000000    -2.505000000     5.805000000
H    -0.688000000    -3.810000000     6.542000000
O    -3.739000000     2.004000000     7.310000000
H    -3.047000000     1.423000000     6.995000000
H    -4.536000000     1.476000000     7.261000000
O     4.199000000    -0.101000000     5.733000000
H     3.397000000    -0.501000000     5.398000000
H     4.005000000     0.836000000     5.762000000
O     2.090000000     0.442000000     9.750000000
H     1.747000000     0.217000000     8.886000000
H     3.024000000     0.239000000     9.697000000
O     2.255000000    -3.266000000     9.173000000
H     3.042000000    -3.810000000     9.141000000
H     1.982000000    -3.185000000     8.259000000
O    -1.323000000     1.593000000     4.136000000
H    -1.753000000     0.938000000     4.686000000
H    -2.039000000     2.008000000     3.655000000
O     4.678000000     0.034000000     8.897000000
H     5.042000000    -0.615000000     8.296000000
H     5.228000000     0.808000000     8.775000000
O     2.065000000    -3.420000000     6.168000000
H     1.927000000    -2.680000000     5.577000000
H     2.449000000    -4.100000000     5.615000000
O     5.901000000    -1.845000000     7.084000000
H     5.311000000    -1.356000000     6.510000000
H     5.704000000    -2.764000000     6.903000000
O     0.407000000    -5.773000000     6.851000000
H     0.941000000    -6.088000000     7.580000000
H     0.918000000    -5.058000000     6.471000000
O    -0.137000000     2.056000000     6.735000000
H    -0.777000000     1.565000000     6.219000000
H     0.258000000     1.402000000     7.312000000
