215
-1424.38209
C    -4.399000000     2.809000000    -1.496000000
H    -4.239000000     2.521000000    -2.532000000
C    -3.357000000     3.440000000    -0.785000000
C    -3.683000000     3.931000000     0.486000000
H    -2.967000000     4.488000000     1.084000000
C    -2.017000000     3.763000000    -1.367000000
O    -2.000000000     3.843000000    -2.778000000
H    -1.584000000     2.807000000    -1.038000000
O    -1.442000000     4.918000000    -0.722000000
C    -0.069000000     4.840000000    -0.425000000
C     0.208000000     4.672000000     0.935000000
H    -0.599000000     4.624000000     1.662000000
C     1.499000000     4.415000000     1.389000000
O     1.587000000     3.764000000     2.615000000
C     2.505000000     4.209000000     0.425000000
C     3.981000000     3.825000000     0.833000000
H     4.556000000     4.392000000     0.097000000
C     4.185000000     2.323000000     0.812000000
C     4.680000000     1.701000000    -0.319000000
H     4.899000000     2.226000000    -1.245000000
H     4.291000000     4.251000000     1.790000000
C     2.231000000     4.461000000    -0.915000000
H     3.021000000     4.252000000    -1.632000000
C     0.949000000     4.760000000    -1.358000000
C     0.622000000     4.944000000    -2.809000000
H     1.438000000     5.414000000    -3.362000000
H    -0.197000000     5.658000000    -2.921000000
C     0.210000000     3.616000000    -3.477000000
C     1.177000000     2.855000000    -4.159000000
H     2.199000000     3.174000000    -4.347000000
C    -1.070000000     3.116000000    -3.405000000
C    -1.406000000     1.787000000    -3.781000000
H    -2.466000000     1.551000000    -3.741000000
C    -0.413000000     1.002000000    -4.346000000
O    -0.719000000    -0.250000000    -4.792000000
C    -0.233000000    -1.254000000    -3.850000000
C    -1.427000000    -2.227000000    -3.638000000
C    -1.230000000    -3.663000000    -3.654000000
H    -0.261000000    -4.089000000    -3.901000000
C    -2.714000000    -1.827000000    -3.374000000
H    -2.926000000    -0.762000000    -3.424000000
O     0.863000000    -2.019000000    -4.337000000
H     0.015000000    -0.734000000    -2.912000000
C     0.872000000     1.543000000    -4.476000000
C     2.011000000     0.720000000    -5.082000000
H     2.891000000     1.341000000    -5.265000000
H     1.671000000     0.236000000    -6.000000000
C     2.592000000    -0.299000000    -4.051000000
C     3.754000000     0.049000000    -3.396000000
H     4.155000000     1.058000000    -3.433000000
C     2.058000000    -1.562000000    -3.871000000
C     2.733000000    -2.542000000    -3.067000000
H     2.290000000    -3.524000000    -2.920000000
C     3.850000000    -2.206000000    -2.331000000
O     4.149000000    -2.897000000    -1.153000000
C     3.670000000    -2.454000000     0.056000000
C     3.163000000    -3.678000000     0.905000000
C     2.194000000    -4.516000000     0.304000000
H     1.890000000    -4.314000000    -0.720000000
C     3.550000000    -3.903000000     2.218000000
H     4.283000000    -3.220000000     2.639000000
O     4.816000000    -1.780000000     0.779000000
H     2.777000000    -1.813000000     0.007000000
C     4.343000000    -0.877000000    -2.485000000
C     5.441000000    -0.325000000    -1.600000000
H     6.009000000     0.468000000    -2.091000000
H     6.098000000    -1.172000000    -1.392000000
C     4.908000000     0.319000000    -0.346000000
C     4.637000000    -0.445000000     0.812000000
C     4.062000000     0.226000000     1.962000000
H     3.836000000    -0.388000000     2.830000000
C     3.864000000     1.580000000     1.924000000
O     3.114000000     2.115000000     2.963000000
C     1.752000000     2.384000000     2.791000000
H     1.379000000     1.894000000     1.880000000
C     0.927000000     1.901000000     3.998000000
C    -0.260000000     2.471000000     4.387000000
H    -0.693000000     3.252000000     3.767000000
C     1.325000000     0.778000000     4.677000000
H     2.255000000     0.298000000     4.381000000
C     0.521000000     0.152000000     5.555000000
O     0.853000000    -1.067000000     6.091000000
C    -0.698000000     0.702000000     5.804000000
H    -1.294000000     0.208000000     6.567000000
C    -1.118000000     1.844000000     5.205000000
O    -2.394000000     2.218000000     5.520000000
C    -3.098000000     3.299000000     5.027000000
C    -3.866000000     3.198000000     3.834000000
H    -3.706000000     2.372000000     3.146000000
C    -3.395000000     4.306000000     5.965000000
H    -2.969000000     4.226000000     6.962000000
C    -4.408000000     5.248000000     5.614000000
H    -4.827000000     5.937000000     6.343000000
C    -5.098000000     5.139000000     4.404000000
H    -5.978000000     5.745000000     4.201000000
C    -4.723000000     4.182000000     3.454000000
O    -5.424000000     4.102000000     2.240000000
C    -4.963000000     3.735000000     0.990000000
C    -5.970000000     3.057000000     0.265000000
H    -6.983000000     2.810000000     0.572000000
C    -5.675000000     2.604000000    -1.015000000
O    -6.679000000     1.989000000    -1.847000000
C    -6.432000000     0.910000000    -2.682000000
C    -5.829000000    -0.182000000    -2.130000000
H    -5.691000000    -0.219000000    -1.052000000
C    -6.516000000     1.127000000    -4.095000000
H    -6.765000000     2.071000000    -4.574000000
C    -6.255000000     0.014000000    -4.885000000
H    -6.401000000     0.037000000    -5.962000000
C    -5.813000000    -1.191000000    -4.323000000
H    -5.639000000    -2.069000000    -4.939000000
C    -5.550000000    -1.234000000    -2.940000000
O    -4.878000000    -2.276000000    -2.388000000
C    -3.703000000    -2.729000000    -2.942000000
C    -3.442000000    -4.017000000    -2.831000000
H    -4.213000000    -4.689000000    -2.462000000
C    -2.234000000    -4.513000000    -3.274000000
O    -2.149000000    -5.900000000    -3.268000000
C    -0.975000000    -6.472000000    -2.725000000
C    -0.758000000    -6.218000000    -1.391000000
H    -1.501000000    -5.641000000    -0.847000000
C     0.013000000    -7.190000000    -3.441000000
H    -0.249000000    -7.219000000    -4.495000000
C     1.203000000    -7.570000000    -2.815000000
H     1.975000000    -8.041000000    -3.418000000
C     1.463000000    -7.281000000    -1.435000000
H     2.427000000    -7.430000000    -0.956000000
C     0.435000000    -6.544000000    -0.764000000
O     0.577000000    -6.247000000     0.596000000
C     1.561000000    -5.462000000     1.123000000
C     1.876000000    -5.623000000     2.484000000
H     1.380000000    -6.336000000     3.137000000
C     2.879000000    -4.828000000     3.011000000
O     3.091000000    -4.939000000     4.431000000
C     3.023000000    -3.807000000     5.243000000
C     4.010000000    -3.606000000     6.209000000
H     4.918000000    -4.186000000     6.065000000
C     4.061000000    -2.483000000     6.971000000
H     4.840000000    -2.345000000     7.716000000
C     2.979000000    -1.625000000     6.960000000
H     2.817000000    -0.818000000     7.670000000
C     2.001000000    -1.765000000     6.020000000
C     2.050000000    -2.804000000     5.106000000
H     1.205000000    -2.973000000     4.444000000
C    -0.438000000    -2.175000000     1.122000000
H    -0.220000000    -3.233000000     1.241000000
C     0.154000000    -1.455000000     0.091000000
H     0.786000000    -1.926000000    -0.657000000
C     0.095000000    -0.091000000     0.127000000
H     0.609000000     0.616000000    -0.587000000
C    -0.667000000     0.534000000     1.036000000
H    -0.805000000     1.607000000     1.144000000
C    -1.273000000    -0.158000000     2.043000000
H    -1.761000000     0.326000000     2.885000000
C    -1.133000000    -1.555000000     2.135000000
C    -1.439000000    -2.373000000     3.358000000
O    -2.024000000    -1.897000000     4.240000000
O    -1.183000000    -3.581000000     3.372000000
O    -3.030000000    -7.839000000     6.310000000
H    -2.290000000    -8.058000000     6.877000000
H    -2.688000000    -7.942000000     5.421000000
O    -2.374000000    -5.621000000     2.180000000
H    -1.598000000    -6.141000000     1.972000000
H    -2.044000000    -4.903000000     2.720000000
O    -1.325000000    -2.557000000     9.297000000
H    -1.286000000    -1.609000000     9.422000000
H    -1.687000000    -2.668000000     8.418000000
O    -2.198000000    -2.507000000     6.775000000
H    -2.988000000    -3.015000000     6.591000000
H    -1.783000000    -2.391000000     5.920000000
O    -5.336000000     0.662000000     2.085000000
H    -6.227000000     0.366000000     1.900000000
H    -5.103000000     1.206000000     1.333000000
O    -6.721000000     1.374000000     5.454000000
H    -5.884000000     1.005000000     5.175000000
H    -7.281000000     1.310000000     4.680000000
O    -6.858000000    -3.787000000     6.379000000
H    -7.068000000    -4.695000000     6.163000000
H    -6.829000000    -3.340000000     5.533000000
O     1.326000000    -5.832000000     7.012000000
H     1.284000000    -4.998000000     7.479000000
H     0.869000000    -5.669000000     6.187000000
O    -4.240000000    -3.630000000     1.002000000
H    -3.408000000    -3.973000000     1.328000000
H    -4.021000000    -2.767000000     0.649000000
O    -5.908000000    -3.522000000     3.797000000
H    -5.324000000    -2.840000000     3.467000000
H    -5.573000000    -4.332000000     3.410000000
O    -4.438000000    -6.186000000    -0.058000000
H    -4.679000000    -5.313000000     0.252000000
H    -4.512000000    -6.744000000     0.716000000
O    -0.734000000    -5.611000000     4.987000000
H    -1.582000000    -5.687000000     5.425000000
H    -0.858000000    -4.913000000     4.345000000
O    -4.666000000    -0.628000000     4.648000000
H    -3.751000000    -0.907000000     4.625000000
H    -4.769000000    -0.080000000     3.870000000
O    -3.386000000     1.024000000     8.038000000
H    -3.476000000     1.692000000     7.358000000
H    -3.163000000     0.225000000     7.561000000
O    -5.011000000    -6.498000000     3.308000000
H    -5.318000000    -7.075000000     2.609000000
H    -4.058000000    -6.490000000     3.211000000
O    -3.428000000    -4.453000000     5.149000000
H    -2.761000000    -3.892000000     4.753000000
H    -4.181000000    -4.381000000     4.563000000
O    -5.544000000    -0.970000000     7.199000000
H    -5.297000000    -1.001000000     6.275000000
H    -6.181000000    -1.677000000     7.300000000
O     1.057000000    -3.692000000     8.779000000
H     0.161000000    -3.556000000     9.089000000
H     1.395000000    -2.809000000     8.629000000
O    -0.422000000     3.031000000     8.262000000
H    -0.670000000     2.370000000     7.615000000
H     0.529000000     3.102000000     8.179000000
