215
-1478.10814
C    -3.035000000    -0.853000000     4.375000000
H    -2.865000000    -1.921000000     4.269000000
C    -3.670000000    -0.069000000     3.353000000
C    -3.612000000     1.350000000     3.504000000
H    -3.987000000     1.898000000     2.643000000
C    -3.859000000    -0.621000000     1.938000000
O    -4.302000000    -1.989000000     1.967000000
H    -2.821000000    -0.528000000     1.585000000
O    -4.751000000     0.220000000     1.135000000
C    -4.588000000     0.475000000    -0.167000000
C    -4.232000000     1.755000000    -0.552000000
H    -4.016000000     2.468000000     0.239000000
C    -3.816000000     2.018000000    -1.848000000
O    -3.281000000     3.278000000    -2.095000000
C    -3.865000000     1.076000000    -2.822000000
C    -3.326000000     1.362000000    -4.257000000
H    -3.746000000     0.735000000    -5.046000000
C    -1.797000000     1.116000000    -4.295000000
C    -1.348000000    -0.170000000    -4.744000000
H    -2.001000000    -1.025000000    -4.897000000
H    -3.565000000     2.381000000    -4.568000000
C    -4.327000000    -0.147000000    -2.464000000
H    -4.364000000    -0.912000000    -3.235000000
C    -4.729000000    -0.441000000    -1.167000000
C    -5.193000000    -1.803000000    -0.793000000
H    -5.702000000    -2.287000000    -1.628000000
H    -6.017000000    -1.732000000    -0.080000000
C    -4.006000000    -2.623000000    -0.368000000
C    -3.252000000    -3.378000000    -1.274000000
H    -3.509000000    -3.424000000    -2.329000000
C    -3.656000000    -2.653000000     1.013000000
C    -2.467000000    -3.263000000     1.443000000
H    -2.289000000    -3.252000000     2.516000000
C    -1.774000000    -4.045000000     0.594000000
O    -0.688000000    -4.634000000     1.166000000
C     0.585000000    -3.946000000     0.783000000
C     1.521000000    -3.888000000     1.962000000
C     2.912000000    -3.910000000     1.681000000
H     3.280000000    -3.944000000     0.659000000
C     0.986000000    -3.941000000     3.281000000
H    -0.071000000    -3.924000000     3.535000000
O     1.127000000    -4.631000000    -0.340000000
H     0.392000000    -2.926000000     0.418000000
C    -2.110000000    -4.065000000    -0.760000000
C    -1.429000000    -4.915000000    -1.771000000
H    -2.037000000    -5.339000000    -2.573000000
H    -0.942000000    -5.803000000    -1.361000000
C    -0.296000000    -4.090000000    -2.302000000
C    -0.341000000    -3.404000000    -3.541000000
H    -1.332000000    -3.438000000    -3.986000000
C     0.909000000    -3.978000000    -1.602000000
C     1.942000000    -3.282000000    -2.140000000
H     2.921000000    -3.376000000    -1.678000000
C     1.878000000    -2.687000000    -3.385000000
O     2.919000000    -1.872000000    -3.755000000
C     2.783000000    -0.454000000    -3.365000000
C     4.096000000     0.202000000    -2.845000000
C     4.973000000    -0.562000000    -2.072000000
H     4.788000000    -1.627000000    -1.959000000
C     4.258000000     1.594000000    -2.903000000
H     3.640000000     2.237000000    -3.525000000
O     2.255000000     0.290000000    -4.473000000
H     1.970000000    -0.524000000    -2.627000000
C     0.706000000    -2.720000000    -4.117000000
C     0.506000000    -1.843000000    -5.309000000
H    -0.241000000    -2.316000000    -5.951000000
H     1.454000000    -1.833000000    -5.851000000
C    -0.019000000    -0.418000000    -4.821000000
C     0.941000000     0.553000000    -4.455000000
C     0.518000000     1.726000000    -3.885000000
H     1.236000000     2.386000000    -3.404000000
C    -0.831000000     2.053000000    -3.908000000
O    -1.264000000     3.295000000    -3.413000000
C    -1.840000000     3.391000000    -2.086000000
H    -1.452000000     2.567000000    -1.469000000
C    -1.295000000     4.615000000    -1.449000000
C    -1.939000000     5.066000000    -0.296000000
H    -2.872000000     4.669000000     0.095000000
C    -0.082000000     5.100000000    -1.893000000
H     0.388000000     4.633000000    -2.755000000
C     0.548000000     6.078000000    -1.123000000
O     1.836000000     6.557000000    -1.421000000
C    -0.064000000     6.582000000     0.035000000
H     0.447000000     7.331000000     0.634000000
C    -1.311000000     6.088000000     0.447000000
O    -1.907000000     6.717000000     1.543000000
C    -2.918000000     6.075000000     2.283000000
C    -2.511000000     4.988000000     3.096000000
H    -1.472000000     4.671000000     3.138000000
C    -4.251000000     6.420000000     2.235000000
H    -4.595000000     7.244000000     1.614000000
C    -5.137000000     5.675000000     3.093000000
H    -6.188000000     5.929000000     2.982000000
C    -4.738000000     4.551000000     3.816000000
H    -5.411000000     3.968000000     4.439000000
C    -3.366000000     4.223000000     3.847000000
O    -2.941000000     3.331000000     4.745000000
C    -3.120000000     1.960000000     4.633000000
C    -2.577000000     1.177000000     5.625000000
H    -2.018000000     1.611000000     6.450000000
C    -2.566000000    -0.212000000     5.505000000
O    -1.985000000    -0.914000000     6.550000000
C    -1.635000000    -2.268000000     6.377000000
C    -0.341000000    -2.509000000     5.864000000
H     0.221000000    -1.722000000     5.367000000
C    -2.453000000    -3.244000000     6.959000000
H    -3.311000000    -3.040000000     7.595000000
C    -1.898000000    -4.562000000     6.966000000
H    -2.458000000    -5.321000000     7.506000000
C    -0.604000000    -4.813000000     6.524000000
H    -0.156000000    -5.777000000     6.751000000
C     0.176000000    -3.784000000     6.012000000
O     1.453000000    -4.047000000     5.634000000
C     1.921000000    -4.029000000     4.323000000
C     3.291000000    -3.861000000     4.025000000
H     3.998000000    -3.808000000     4.850000000
C     3.772000000    -3.819000000     2.716000000
O     5.122000000    -3.751000000     2.635000000
C     5.774000000    -3.487000000     1.422000000
C     5.982000000    -2.188000000     1.014000000
H     5.699000000    -1.387000000     1.692000000
C     6.365000000    -4.507000000     0.695000000
H     6.307000000    -5.500000000     1.134000000
C     7.063000000    -4.316000000    -0.447000000
H     7.638000000    -5.142000000    -0.858000000
C     7.089000000    -2.968000000    -0.926000000
H     7.689000000    -2.879000000    -1.828000000
C     6.678000000    -1.923000000    -0.136000000
O     6.891000000    -0.556000000    -0.507000000
C     5.988000000     0.071000000    -1.319000000
C     6.198000000     1.438000000    -1.473000000
H     7.112000000     1.973000000    -1.227000000
C     5.286000000     2.170000000    -2.205000000
O     5.440000000     3.605000000    -2.179000000
C     4.518000000     4.438000000    -2.718000000
C     4.374000000     4.609000000    -4.095000000
H     5.071000000     4.067000000    -4.729000000
C     3.303000000     5.360000000    -4.643000000
H     3.209000000     5.442000000    -5.723000000
C     2.512000000     6.062000000    -3.719000000
H     1.705000000     6.702000000    -4.066000000
C     2.699000000     5.959000000    -2.338000000
C     3.702000000     5.143000000    -1.851000000
H     3.799000000     5.038000000    -0.773000000
C    -0.001000000     0.223000000     2.880000000
H    -0.064000000    -0.393000000     3.773000000
C    -0.264000000    -0.297000000     1.587000000
H    -0.593000000    -1.327000000     1.482000000
C    -0.158000000     0.564000000     0.523000000
H    -0.413000000     0.172000000    -0.497000000
C     0.181000000     1.893000000     0.763000000
H     0.196000000     2.671000000     0.004000000
C     0.576000000     2.307000000     2.019000000
H     0.899000000     3.334000000     2.174000000
C     0.519000000     1.473000000     3.097000000
C     0.955000000     1.972000000     4.482000000
O     1.079000000     3.155000000     4.720000000
O     1.173000000     1.120000000     5.307000000
O     3.060000000    -0.794000000     4.489000000
H     3.579000000    -0.987000000     5.269000000
H     2.345000000    -0.243000000     4.807000000
O     4.845000000     1.685000000     5.128000000
H     4.798000000     0.841000000     4.681000000
H     4.603000000     2.325000000     4.459000000
O     5.401000000     1.909000000     1.955000000
H     4.829000000     2.607000000     2.273000000
H     4.809000000     1.179000000     1.772000000
O     0.656000000     5.843000000     3.828000000
H     0.211000000     6.041000000     4.652000000
H     0.766000000     4.893000000     3.836000000
O     4.053000000     3.762000000     3.562000000
H     4.046000000     4.516000000     2.973000000
H     3.141000000     3.662000000     3.834000000
O     3.377000000     5.382000000     8.698000000
H     3.223000000     6.134000000     8.125000000
H     3.307000000     4.622000000     8.120000000
O    -1.046000000     7.195000000     5.854000000
H    -1.970000000     7.049000000     6.053000000
H    -0.580000000     6.868000000     6.623000000
O     4.060000000    -1.514000000     7.051000000
H     3.612000000    -2.267000000     7.439000000
H     3.600000000    -0.753000000     7.405000000
O     3.323000000     3.545000000     6.710000000
H     3.898000000     2.796000000     6.554000000
H     2.556000000     3.376000000     6.163000000
O     2.151000000     0.300000000     7.569000000
H     1.748000000     0.662000000     6.780000000
H     1.412000000     0.083000000     8.138000000
O     0.185000000     5.413000000     8.176000000
H     0.184000000     4.521000000     7.831000000
H     1.048000000     5.515000000     8.578000000
O     1.244000000     8.303000000     2.985000000
H     1.021000000     7.372000000     2.998000000
H     1.873000000     8.389000000     2.269000000
O     4.195000000     1.159000000     8.963000000
H     3.395000000     0.782000000     8.596000000
H     3.891000000     1.887000000     9.504000000
O    -1.404000000     3.554000000     9.702000000
H    -1.273000000     2.962000000     8.961000000
H    -1.779000000     4.345000000     9.313000000
O     3.305000000     0.121000000     1.961000000
H     2.576000000    -0.154000000     1.404000000
H     3.145000000    -0.316000000     2.798000000
O     5.224000000     5.680000000     5.723000000
H     4.553000000     5.654000000     5.041000000
H     4.800000000     5.297000000     6.491000000
O    -0.475000000     0.403000000     8.779000000
H    -0.646000000    -0.044000000     9.608000000
H    -0.970000000    -0.098000000     8.130000000
O     0.370000000     2.869000000     7.668000000
H     0.313000000     2.017000000     8.099000000
H     0.563000000     2.663000000     6.753000000
O    -3.502000000     5.126000000     6.934000000
H    -3.972000000     5.867000000     6.552000000
H    -3.365000000     4.526000000     6.200000000
