215
-1447.69422
C    -2.553000000    -0.905000000     4.534000000
H    -2.127000000    -1.801000000     4.090000000
C    -3.430000000    -0.211000000     3.736000000
C    -3.840000000     1.038000000     4.068000000
H    -4.405000000     1.679000000     3.397000000
C    -3.815000000    -0.738000000     2.392000000
O    -4.092000000    -2.188000000     2.310000000
H    -2.953000000    -0.536000000     1.739000000
O    -4.897000000    -0.023000000     1.758000000
C    -4.721000000     0.402000000     0.456000000
C    -4.343000000     1.740000000     0.248000000
H    -4.163000000     2.292000000     1.167000000
C    -3.981000000     2.170000000    -1.031000000
O    -3.407000000     3.429000000    -1.171000000
C    -4.140000000     1.372000000    -2.089000000
C    -3.864000000     1.738000000    -3.559000000
H    -4.519000000     1.137000000    -4.194000000
C    -2.445000000     1.430000000    -3.942000000
C    -2.088000000     0.136000000    -4.453000000
H    -2.841000000    -0.637000000    -4.585000000
H    -4.095000000     2.781000000    -3.787000000
C    -4.544000000     0.034000000    -1.903000000
H    -4.711000000    -0.606000000    -2.766000000
C    -4.749000000    -0.482000000    -0.628000000
C    -5.171000000    -1.900000000    -0.489000000
H    -5.721000000    -2.213000000    -1.379000000
H    -5.938000000    -1.916000000     0.289000000
C    -4.003000000    -2.812000000    -0.114000000
C    -3.373000000    -3.625000000    -1.085000000
H    -3.816000000    -3.677000000    -2.076000000
C    -3.607000000    -2.963000000     1.247000000
C    -2.476000000    -3.744000000     1.479000000
H    -2.066000000    -3.842000000     2.480000000
C    -1.752000000    -4.382000000     0.475000000
O    -0.497000000    -4.870000000     0.772000000
C     0.607000000    -4.162000000     0.333000000
C     1.722000000    -4.004000000     1.466000000
C     2.989000000    -3.651000000     1.106000000
H     3.167000000    -3.459000000     0.051000000
C     1.455000000    -4.198000000     2.817000000
H     0.440000000    -4.400000000     3.149000000
O     1.175000000    -4.690000000    -0.870000000
H     0.281000000    -3.116000000     0.235000000
C    -2.206000000    -4.331000000    -0.823000000
C    -1.507000000    -4.990000000    -1.988000000
H    -2.218000000    -5.307000000    -2.754000000
H    -1.192000000    -5.941000000    -1.555000000
C    -0.371000000    -4.100000000    -2.574000000
C    -0.738000000    -3.332000000    -3.661000000
H    -1.756000000    -3.419000000    -4.032000000
C     0.862000000    -4.001000000    -2.049000000
C     1.832000000    -3.182000000    -2.646000000
H     2.828000000    -3.095000000    -2.221000000
C     1.471000000    -2.443000000    -3.775000000
O     2.381000000    -1.586000000    -4.378000000
C     2.400000000    -0.282000000    -3.824000000
C     3.727000000     0.355000000    -3.484000000
C     4.787000000    -0.473000000    -3.065000000
H     4.650000000    -1.550000000    -3.118000000
C     3.901000000     1.781000000    -3.417000000
H     3.132000000     2.427000000    -3.834000000
O     1.589000000     0.565000000    -4.650000000
H     1.840000000    -0.274000000    -2.877000000
C     0.107000000    -2.410000000    -4.197000000
C    -0.385000000    -1.475000000    -5.329000000
H    -1.250000000    -1.923000000    -5.822000000
H     0.309000000    -1.333000000    -6.160000000
C    -0.738000000    -0.115000000    -4.701000000
C     0.244000000     0.809000000    -4.350000000
C    -0.108000000     2.048000000    -3.885000000
H     0.725000000     2.697000000    -3.626000000
C    -1.473000000     2.380000000    -3.700000000
O    -1.685000000     3.600000000    -2.988000000
C    -1.972000000     3.427000000    -1.582000000
H    -1.563000000     2.436000000    -1.334000000
C    -1.110000000     4.372000000    -0.705000000
C    -1.397000000     4.521000000     0.634000000
H    -2.288000000     4.076000000     1.069000000
C     0.081000000     4.911000000    -1.237000000
H     0.319000000     4.732000000    -2.282000000
C     0.956000000     5.586000000    -0.398000000
O     2.126000000     6.134000000    -0.849000000
C     0.587000000     5.781000000     0.961000000
H     1.275000000     6.242000000     1.664000000
C    -0.584000000     5.270000000     1.490000000
O    -0.734000000     5.170000000     2.884000000
C    -1.895000000     5.093000000     3.518000000
C    -2.238000000     3.944000000     4.243000000
H    -1.484000000     3.165000000     4.324000000
C    -2.750000000     6.199000000     3.431000000
H    -2.512000000     7.110000000     2.886000000
C    -3.990000000     6.140000000     4.109000000
H    -4.755000000     6.895000000     3.948000000
C    -4.359000000     5.049000000     4.855000000
H    -5.359000000     4.998000000     5.279000000
C    -3.495000000     3.965000000     4.933000000
O    -3.840000000     2.896000000     5.683000000
C    -3.504000000     1.564000000     5.282000000
C    -2.598000000     0.878000000     6.115000000
H    -2.345000000     1.312000000     7.080000000
C    -2.160000000    -0.381000000     5.750000000
O    -1.134000000    -0.940000000     6.483000000
C    -0.797000000    -2.238000000     6.411000000
C     0.495000000    -2.545000000     6.018000000
H     1.275000000    -1.819000000     5.799000000
C    -1.795000000    -3.239000000     6.397000000
H    -2.851000000    -3.107000000     6.620000000
C    -1.449000000    -4.540000000     6.114000000
H    -2.310000000    -5.192000000     5.993000000
C    -0.150000000    -4.886000000     5.688000000
H     0.005000000    -5.934000000     5.447000000
C     0.852000000    -3.892000000     5.676000000
O     2.135000000    -4.127000000     5.193000000
C     2.418000000    -4.026000000     3.801000000
C     3.644000000    -3.527000000     3.427000000
H     4.400000000    -3.315000000     4.179000000
C     3.959000000    -3.366000000     2.076000000
O     5.268000000    -3.007000000     1.758000000
C     5.793000000    -3.078000000     0.525000000
C     6.257000000    -1.960000000    -0.183000000
H     6.276000000    -0.973000000     0.271000000
C     5.860000000    -4.287000000    -0.139000000
H     5.426000000    -5.177000000     0.308000000
C     6.263000000    -4.373000000    -1.462000000
H     6.217000000    -5.338000000    -1.959000000
C     6.625000000    -3.250000000    -2.158000000
H     6.826000000    -3.306000000    -3.224000000
C     6.745000000    -2.055000000    -1.470000000
O     6.982000000    -0.898000000    -2.126000000
C     5.966000000     0.019000000    -2.614000000
C     6.159000000     1.395000000    -2.598000000
H     7.180000000     1.672000000    -2.347000000
C     5.135000000     2.293000000    -2.957000000
O     5.442000000     3.680000000    -3.103000000
C     4.578000000     4.682000000    -3.140000000
C     4.191000000     5.326000000    -4.337000000
H     4.739000000     5.043000000    -5.232000000
C     3.222000000     6.294000000    -4.360000000
H     2.971000000     6.768000000    -5.305000000
C     2.503000000     6.555000000    -3.201000000
H     1.663000000     7.243000000    -3.147000000
C     2.818000000     5.881000000    -2.018000000
C     3.853000000     4.919000000    -2.001000000
H     4.042000000     4.393000000    -1.069000000
C     0.263000000     0.193000000     2.786000000
H    -0.018000000    -0.229000000     3.748000000
C    -0.193000000    -0.384000000     1.610000000
H    -0.860000000    -1.242000000     1.598000000
C     0.045000000     0.155000000     0.364000000
H    -0.326000000    -0.271000000    -0.512000000
C     0.562000000     1.412000000     0.312000000
H     0.561000000     1.976000000    -0.617000000
C     0.958000000     2.087000000     1.472000000
H     1.407000000     3.077000000     1.453000000
C     0.843000000     1.468000000     2.697000000
C     1.330000000     2.033000000     3.932000000
O     1.897000000     3.130000000     3.890000000
O     1.452000000     1.344000000     4.916000000
O     5.171000000     4.916000000     4.976000000
H     5.047000000     4.945000000     4.027000000
H     4.782000000     5.731000000     5.293000000
O     6.564000000    -0.081000000     2.933000000
H     6.233000000     0.546000000     3.576000000
H     5.893000000    -0.763000000     2.896000000
O     2.540000000     5.712000000     3.945000000
H     1.827000000     6.268000000     4.258000000
H     2.177000000     4.826000000     3.959000000
O     4.405000000     2.211000000     3.186000000
H     3.553000000     2.464000000     3.542000000
H     4.965000000     2.109000000     3.955000000
O     3.447000000     3.118000000     6.098000000
H     4.196000000     3.651000000     5.831000000
H     2.852000000     3.149000000     5.348000000
O     4.315000000    -2.279000000     6.752000000
H     3.601000000    -2.768000000     7.162000000
H     3.926000000    -1.906000000     5.961000000
O     2.662000000     2.983000000     8.638000000
H     2.089000000     3.740000000     8.758000000
H     2.913000000     3.018000000     7.715000000
O     4.472000000     7.218000000     2.644000000
H     4.201000000     8.135000000     2.679000000
H     3.710000000     6.731000000     2.957000000
O     5.752000000     3.741000000     1.170000000
H     5.200000000     3.294000000     1.811000000
H     6.346000000     3.062000000     0.850000000
O     3.134000000    -0.671000000     4.634000000
H     2.504000000     0.042000000     4.746000000
H     2.872000000    -1.095000000     3.817000000
O     0.410000000     1.190000000     7.310000000
H     0.959000000     1.367000000     6.546000000
H     0.178000000     0.265000000     7.230000000
O     6.781000000     1.985000000     4.830000000
H     7.679000000     1.970000000     4.498000000
H     6.591000000     2.913000000     4.964000000
O    -1.000000000     2.377000000     9.323000000
H    -0.917000000     1.963000000    10.181000000
H    -0.421000000     1.868000000     8.754000000
O     4.343000000     0.357000000     7.772000000
H     4.063000000    -0.188000000     7.036000000
H     3.863000000     1.178000000     7.658000000
O     0.296000000     7.540000000     5.728000000
H     0.323000000     7.782000000     6.654000000
H     0.090000000     6.605000000     5.731000000
O    -2.121000000     4.700000000     8.508000000
H    -1.814000000     3.862000000     8.855000000
H    -1.610000000     4.831000000     7.710000000
O     3.716000000    -0.289000000     1.843000000
H     3.847000000     0.536000000     2.310000000
H     3.337000000    -0.032000000     1.002000000
O     1.742000000     0.335000000    10.025000000
H     1.828000000     0.728000000     9.157000000
H     1.970000000     1.040000000    10.631000000
O    -0.280000000     4.572000000     6.334000000
H     0.476000000     4.930000000     6.800000000
H     0.075000000     4.278000000     5.495000000
