215
-1449.45231
C    -2.859000000    -1.271000000     4.231000000
H    -3.019000000    -2.322000000     4.006000000
C    -3.149000000    -0.276000000     3.244000000
C    -2.956000000     1.079000000     3.591000000
H    -3.209000000     1.917000000     2.946000000
C    -3.719000000    -0.553000000     1.879000000
O    -4.161000000    -1.930000000     1.758000000
H    -2.837000000    -0.315000000     1.266000000
O    -4.720000000     0.363000000     1.431000000
C    -4.576000000     0.933000000     0.177000000
C    -3.950000000     2.162000000     0.083000000
H    -3.870000000     2.762000000     0.986000000
C    -3.469000000     2.611000000    -1.132000000
O    -2.809000000     3.726000000    -1.103000000
C    -3.739000000     1.902000000    -2.308000000
C    -3.334000000     2.508000000    -3.642000000
H    -4.039000000     2.225000000    -4.427000000
C    -1.879000000     2.226000000    -4.023000000
C    -1.570000000     1.060000000    -4.728000000
H    -2.402000000     0.426000000    -5.022000000
H    -3.350000000     3.600000000    -3.664000000
C    -4.253000000     0.592000000    -2.218000000
H    -4.160000000    -0.084000000    -3.064000000
C    -4.603000000     0.112000000    -0.999000000
C    -5.213000000    -1.293000000    -0.847000000
H    -5.797000000    -1.521000000    -1.741000000
H    -5.832000000    -1.319000000     0.052000000
C    -4.130000000    -2.279000000    -0.670000000
C    -3.612000000    -2.978000000    -1.757000000
H    -3.879000000    -2.692000000    -2.772000000
C    -3.720000000    -2.633000000     0.623000000
C    -2.778000000    -3.610000000     0.808000000
H    -2.339000000    -3.790000000     1.786000000
C    -2.222000000    -4.320000000    -0.272000000
O    -1.092000000    -5.057000000    -0.014000000
C     0.125000000    -4.368000000    -0.218000000
C     1.119000000    -4.521000000     0.932000000
C     2.479000000    -4.553000000     0.614000000
H     2.808000000    -4.473000000    -0.419000000
C     0.709000000    -4.563000000     2.279000000
H    -0.335000000    -4.541000000     2.583000000
O     0.742000000    -4.692000000    -1.436000000
H    -0.110000000    -3.295000000    -0.274000000
C    -2.615000000    -3.936000000    -1.546000000
C    -1.928000000    -4.576000000    -2.712000000
H    -2.595000000    -4.641000000    -3.574000000
H    -1.706000000    -5.623000000    -2.494000000
C    -0.688000000    -3.821000000    -3.121000000
C    -0.816000000    -2.870000000    -4.170000000
H    -1.732000000    -2.769000000    -4.746000000
C     0.505000000    -3.875000000    -2.469000000
C     1.598000000    -3.064000000    -2.822000000
H     2.518000000    -3.076000000    -2.244000000
C     1.459000000    -2.136000000    -3.841000000
O     2.544000000    -1.313000000    -4.207000000
C     2.439000000     0.018000000    -3.618000000
C     3.774000000     0.344000000    -2.974000000
C     4.697000000    -0.600000000    -2.528000000
H     4.443000000    -1.630000000    -2.768000000
C     4.095000000     1.658000000    -2.551000000
H     3.360000000     2.439000000    -2.728000000
O     2.044000000     1.083000000    -4.506000000
H     1.737000000    -0.067000000    -2.775000000
C     0.198000000    -1.926000000    -4.403000000
C     0.040000000    -0.812000000    -5.412000000
H    -0.761000000    -1.023000000    -6.123000000
H     0.900000000    -0.779000000    -6.084000000
C    -0.272000000     0.607000000    -4.873000000
C     0.729000000     1.415000000    -4.410000000
C     0.408000000     2.616000000    -3.744000000
H     1.202000000     3.288000000    -3.426000000
C    -0.876000000     3.058000000    -3.562000000
O    -1.012000000     4.090000000    -2.695000000
C    -1.377000000     3.786000000    -1.323000000
H    -0.999000000     2.813000000    -0.975000000
C    -0.797000000     4.863000000    -0.431000000
C    -1.504000000     5.407000000     0.680000000
H    -2.501000000     4.985000000     0.770000000
C     0.473000000     5.338000000    -0.638000000
H     1.040000000     4.997000000    -1.500000000
C     1.085000000     6.277000000     0.235000000
O     2.352000000     6.772000000     0.002000000
C     0.358000000     6.680000000     1.315000000
H     0.851000000     7.353000000     2.011000000
C    -0.926000000     6.254000000     1.607000000
O    -1.687000000     6.771000000     2.609000000
C    -2.356000000     5.944000000     3.467000000
C    -1.843000000     4.707000000     3.943000000
H    -0.779000000     4.495000000     4.003000000
C    -3.693000000     6.230000000     3.696000000
H    -4.121000000     7.131000000     3.263000000
C    -4.503000000     5.474000000     4.547000000
H    -5.502000000     5.820000000     4.798000000
C    -4.008000000     4.216000000     4.852000000
H    -4.653000000     3.525000000     5.388000000
C    -2.725000000     3.821000000     4.629000000
O    -2.232000000     2.761000000     5.312000000
C    -2.457000000     1.452000000     4.848000000
C    -2.254000000     0.446000000     5.752000000
H    -1.933000000     0.720000000     6.754000000
C    -2.349000000    -0.915000000     5.471000000
O    -1.934000000    -1.838000000     6.411000000
C    -1.561000000    -3.109000000     6.114000000
C    -0.294000000    -3.291000000     5.539000000
H     0.465000000    -2.518000000     5.449000000
C    -2.368000000    -4.153000000     6.451000000
H    -3.343000000    -3.910000000     6.866000000
C    -1.942000000    -5.496000000     6.120000000
H    -2.554000000    -6.358000000     6.371000000
C    -0.759000000    -5.674000000     5.440000000
H    -0.439000000    -6.674000000     5.159000000
C     0.028000000    -4.539000000     5.134000000
O     1.281000000    -4.781000000     4.646000000
C     1.647000000    -4.585000000     3.305000000
C     3.006000000    -4.687000000     2.995000000
H     3.815000000    -4.764000000     3.718000000
C     3.416000000    -4.635000000     1.667000000
O     4.782000000    -4.682000000     1.468000000
C     5.425000000    -4.313000000     0.298000000
C     5.791000000    -2.971000000     0.005000000
H     5.645000000    -2.156000000     0.709000000
C     5.619000000    -5.285000000    -0.625000000
H     5.350000000    -6.314000000    -0.402000000
C     6.327000000    -4.955000000    -1.788000000
H     6.530000000    -5.712000000    -2.541000000
C     6.768000000    -3.681000000    -2.045000000
H     7.439000000    -3.569000000    -2.893000000
C     6.484000000    -2.635000000    -1.152000000
O     6.761000000    -1.304000000    -1.505000000
C     5.887000000    -0.345000000    -1.844000000
C     6.127000000     0.994000000    -1.544000000
H     6.976000000     1.084000000    -0.871000000
C     5.181000000     1.974000000    -1.712000000
O     5.454000000     3.196000000    -1.132000000
C     4.746000000     4.270000000    -1.490000000
C     4.823000000     4.795000000    -2.777000000
H     5.427000000     4.186000000    -3.444000000
C     4.059000000     5.853000000    -3.083000000
H     4.096000000     6.112000000    -4.138000000
C     3.315000000     6.526000000    -2.113000000
H     2.726000000     7.392000000    -2.403000000
C     3.210000000     6.050000000    -0.855000000
C     3.860000000     4.839000000    -0.504000000
H     3.736000000     4.549000000     0.536000000
C     0.258000000     0.012000000     2.835000000
H     0.179000000    -0.381000000     3.846000000
C    -0.222000000    -0.624000000     1.726000000
H    -0.830000000    -1.523000000     1.772000000
C     0.004000000     0.042000000     0.505000000
H    -0.475000000    -0.355000000    -0.480000000
C     0.747000000     1.232000000     0.470000000
H     0.892000000     1.751000000    -0.474000000
C     1.170000000     1.815000000     1.607000000
H     1.872000000     2.645000000     1.588000000
C     0.931000000     1.230000000     2.802000000
C     1.580000000     1.753000000     4.040000000
O     2.090000000     2.836000000     4.091000000
O     1.564000000     1.090000000     5.104000000
O     5.730000000     5.452000000     6.973000000
H     5.789000000     6.361000000     6.679000000
H     4.884000000     5.148000000     6.645000000
O     6.028000000    -0.524000000     4.945000000
H     6.377000000    -0.815000000     5.788000000
H     5.218000000    -0.066000000     5.166000000
O     6.729000000    -0.060000000     2.431000000
H     6.578000000    -0.470000000     3.283000000
H     5.872000000    -0.068000000     2.006000000
O     1.972000000     5.598000000     3.400000000
H     2.231000000     5.604000000     2.479000000
H     1.720000000     4.691000000     3.572000000
O     4.369000000     2.259000000     3.350000000
H     3.660000000     2.668000000     3.846000000
H     5.167000000     2.535000000     3.800000000
O     3.310000000     4.648000000     6.358000000
H     2.623000000     5.047000000     6.891000000
H     2.923000000     4.571000000     5.486000000
O     1.677000000    -2.745000000     8.845000000
H     1.626000000    -2.152000000     8.095000000
H     1.204000000    -3.528000000     8.564000000
O     2.755000000     1.806000000     8.631000000
H     2.584000000     2.623000000     8.163000000
H     3.678000000     1.620000000     8.459000000
O     6.487000000     3.932000000     2.219000000
H     5.797000000     3.324000000     2.484000000
H     7.229000000     3.370000000     1.996000000
O     3.993000000     0.384000000     6.303000000
H     3.188000000     0.845000000     6.065000000
H     3.753000000    -0.543000000     6.281000000
O     1.264000000    -0.476000000     7.329000000
H     1.209000000    -0.146000000     6.432000000
H     1.579000000     0.270000000     7.840000000
O     7.022000000     2.804000000     5.434000000
H     7.722000000     2.153000000     5.380000000
H     7.421000000     3.549000000     5.883000000
O     1.419000000     5.703000000     8.066000000
H     0.818000000     5.014000000     7.783000000
H     0.858000000     6.347000000     8.499000000
O     5.562000000     2.099000000     7.685000000
H     5.217000000     1.325000000     7.241000000
H     5.815000000     2.689000000     6.975000000
O     3.540000000     7.914000000     4.133000000
H     3.027000000     7.126000000     3.957000000
H     3.070000000     8.612000000     3.676000000
O    -2.127000000     4.275000000     8.080000000
H    -2.122000000     3.826000000     8.926000000
H    -1.319000000     3.992000000     7.654000000
O     4.036000000     0.546000000     1.198000000
H     3.737000000     1.158000000     1.871000000
H     3.231000000     0.181000000     0.831000000
O     0.397000000     1.502000000    10.193000000
H     0.515000000     1.386000000    11.136000000
H     1.273000000     1.704000000     9.865000000
O     0.582000000     3.555000000     6.722000000
H    -0.038000000     2.960000000     6.299000000
H     1.382000000     3.476000000     6.202000000
