215
-1430.78283
C    -3.356000000    -0.543000000     4.104000000
H    -3.442000000    -1.561000000     3.731000000
C    -3.624000000     0.526000000     3.243000000
C    -3.433000000     1.856000000     3.709000000
H    -3.618000000     2.761000000     3.135000000
C    -3.874000000     0.292000000     1.756000000
O    -4.531000000    -0.930000000     1.560000000
H    -2.916000000     0.248000000     1.216000000
O    -4.584000000     1.436000000     1.197000000
C    -4.240000000     1.854000000    -0.037000000
C    -3.277000000     2.867000000    -0.087000000
H    -3.152000000     3.463000000     0.813000000
C    -2.752000000     3.247000000    -1.290000000
O    -1.892000000     4.288000000    -1.344000000
C    -3.115000000     2.599000000    -2.480000000
C    -2.510000000     2.994000000    -3.762000000
H    -3.026000000     2.693000000    -4.676000000
C    -1.143000000     2.299000000    -3.953000000
C    -1.085000000     1.109000000    -4.735000000
H    -2.006000000     0.655000000    -5.091000000
H    -2.367000000     4.076000000    -3.752000000
C    -4.002000000     1.515000000    -2.411000000
H    -4.056000000     0.908000000    -3.311000000
C    -4.564000000     1.121000000    -1.228000000
C    -5.360000000    -0.198000000    -1.190000000
H    -5.723000000    -0.364000000    -2.206000000
H    -6.258000000    -0.021000000    -0.595000000
C    -4.481000000    -1.380000000    -0.771000000
C    -3.956000000    -2.157000000    -1.833000000
H    -4.045000000    -1.752000000    -2.838000000
C    -4.090000000    -1.692000000     0.503000000
C    -3.255000000    -2.789000000     0.777000000
H    -3.237000000    -3.103000000     1.818000000
C    -2.881000000    -3.633000000    -0.264000000
O    -1.908000000    -4.577000000     0.056000000
C    -0.547000000    -4.277000000    -0.258000000
C     0.283000000    -4.686000000     0.960000000
C     1.486000000    -5.325000000     0.786000000
H     1.887000000    -5.654000000    -0.169000000
C    -0.084000000    -4.288000000     2.195000000
H    -1.039000000    -3.770000000     2.235000000
O    -0.167000000    -4.885000000    -1.554000000
H    -0.398000000    -3.188000000    -0.308000000
C    -3.085000000    -3.233000000    -1.612000000
C    -2.674000000    -4.032000000    -2.771000000
H    -3.300000000    -3.896000000    -3.655000000
H    -2.826000000    -5.086000000    -2.532000000
C    -1.275000000    -3.594000000    -3.234000000
C    -1.158000000    -2.554000000    -4.206000000
H    -2.009000000    -2.194000000    -4.779000000
C    -0.081000000    -4.031000000    -2.651000000
C     1.157000000    -3.476000000    -2.956000000
H     2.124000000    -3.732000000    -2.530000000
C     1.289000000    -2.531000000    -3.977000000
O     2.478000000    -1.868000000    -4.043000000
C     2.660000000    -0.602000000    -3.460000000
C     3.964000000    -0.427000000    -2.755000000
C     4.479000000    -1.517000000    -2.081000000
H     3.979000000    -2.482000000    -2.103000000
C     4.620000000     0.805000000    -2.710000000
H     4.197000000     1.640000000    -3.262000000
O     2.435000000     0.432000000    -4.450000000
H     2.016000000    -0.378000000    -2.597000000
C     0.134000000    -2.040000000    -4.550000000
C     0.103000000    -0.908000000    -5.611000000
H    -0.663000000    -1.130000000    -6.357000000
H     1.036000000    -0.931000000    -6.178000000
C     0.117000000     0.485000000    -4.955000000
C     1.212000000     1.006000000    -4.339000000
C     1.227000000     2.218000000    -3.736000000
H     2.166000000     2.687000000    -3.453000000
C     0.027000000     2.901000000    -3.523000000
O    -0.049000000     3.986000000    -2.687000000
C    -0.554000000     3.843000000    -1.353000000
H    -0.533000000     2.767000000    -1.129000000
C     0.280000000     4.463000000    -0.297000000
C    -0.312000000     5.106000000     0.694000000
H    -1.389000000     5.200000000     0.812000000
C     1.672000000     4.318000000    -0.318000000
H     2.131000000     3.801000000    -1.157000000
C     2.439000000     4.911000000     0.677000000
O     3.818000000     4.895000000     0.574000000
C     1.789000000     5.594000000     1.702000000
H     2.414000000     6.026000000     2.479000000
C     0.420000000     5.602000000     1.772000000
O    -0.151000000     6.095000000     2.931000000
C    -1.435000000     5.930000000     3.389000000
C    -1.665000000     4.726000000     4.067000000
H    -0.923000000     3.931000000     4.060000000
C    -2.405000000     6.974000000     3.419000000
H    -2.087000000     7.987000000     3.186000000
C    -3.554000000     6.773000000     4.180000000
H    -4.171000000     7.633000000     4.427000000
C    -3.772000000     5.572000000     4.866000000
H    -4.666000000     5.438000000     5.470000000
C    -2.867000000     4.554000000     4.698000000
O    -2.992000000     3.416000000     5.440000000
C    -3.048000000     2.078000000     5.020000000
C    -2.827000000     0.999000000     5.872000000
H    -2.650000000     1.108000000     6.939000000
C    -3.102000000    -0.263000000     5.447000000
O    -2.989000000    -1.216000000     6.416000000
C    -2.575000000    -2.487000000     6.024000000
C    -1.292000000    -2.651000000     5.497000000
H    -0.558000000    -1.851000000     5.538000000
C    -3.506000000    -3.526000000     6.175000000
H    -4.507000000    -3.486000000     6.596000000
C    -3.042000000    -4.808000000     5.788000000
H    -3.779000000    -5.604000000     5.718000000
C    -1.725000000    -5.008000000     5.319000000
H    -1.462000000    -6.032000000     5.067000000
C    -0.897000000    -3.919000000     5.106000000
O     0.349000000    -4.029000000     4.576000000
C     0.710000000    -4.520000000     3.308000000
C     1.929000000    -5.126000000     3.079000000
H     2.705000000    -5.057000000     3.837000000
C     2.426000000    -5.420000000     1.807000000
O     3.628000000    -5.926000000     1.519000000
C     4.381000000    -5.489000000     0.458000000
C     4.801000000    -4.207000000     0.442000000
H     4.599000000    -3.537000000     1.273000000
C     4.629000000    -6.407000000    -0.526000000
H     4.253000000    -7.425000000    -0.473000000
C     5.228000000    -5.872000000    -1.667000000
H     5.409000000    -6.618000000    -2.436000000
C     5.697000000    -4.548000000    -1.778000000
H     6.185000000    -4.295000000    -2.715000000
C     5.537000000    -3.711000000    -0.659000000
O     6.194000000    -2.467000000    -0.610000000
C     5.679000000    -1.435000000    -1.354000000
C     6.319000000    -0.210000000    -1.294000000
H     7.277000000    -0.126000000    -0.788000000
C     5.829000000     0.918000000    -1.942000000
O     6.514000000     2.063000000    -1.910000000
C     5.895000000     3.307000000    -1.855000000
C     6.017000000     4.258000000    -2.873000000
H     6.611000000     3.943000000    -3.727000000
C     5.292000000     5.497000000    -2.792000000
H     5.271000000     6.289000000    -3.536000000
C     4.440000000     5.668000000    -1.709000000
H     3.832000000     6.567000000    -1.643000000
C     4.458000000     4.759000000    -0.609000000
C     5.237000000     3.633000000    -0.656000000
H     5.245000000     3.014000000     0.239000000
C     0.605000000     0.560000000     2.452000000
H     0.369000000     0.351000000     3.492000000
C    -0.225000000     0.118000000     1.476000000
H    -1.158000000    -0.389000000     1.711000000
C     0.117000000     0.276000000     0.148000000
H    -0.620000000    -0.017000000    -0.620000000
C     1.291000000     0.875000000    -0.231000000
H     1.423000000     1.114000000    -1.283000000
C     2.067000000     1.404000000     0.823000000
H     2.973000000     1.956000000     0.588000000
C     1.776000000     1.210000000     2.168000000
C     2.699000000     1.631000000     3.275000000
O     3.708000000     2.266000000     3.047000000
O     2.265000000     1.588000000     4.431000000
O     7.611000000     4.275000000     3.062000000
H     6.719000000     4.430000000     3.372000000
H     8.170000000     4.653000000     3.742000000
O     4.781000000     0.591000000     8.428000000
H     5.688000000     0.286000000     8.391000000
H     4.848000000     1.545000000     8.401000000
O     3.963000000     7.086000000     4.578000000
H     4.016000000     8.039000000     4.649000000
H     3.367000000     6.826000000     5.281000000
O     5.016000000     4.463000000     4.233000000
H     4.410000000     3.780000000     3.946000000
H     4.545000000     5.282000000     4.079000000
O     6.436000000     4.557000000     6.416000000
H     5.868000000     4.524000000     5.646000000
H     6.867000000     5.410000000     6.359000000
O     2.452000000    -2.043000000     2.331000000
H     2.320000000    -1.142000000     2.038000000
H     1.661000000    -2.504000000     2.055000000
O     1.229000000     3.757000000     5.251000000
H     1.872000000     4.457000000     5.141000000
H     1.639000000     2.989000000     4.853000000
O     3.197000000    -3.097000000     6.803000000
H     3.596000000    -3.065000000     5.933000000
H     3.074000000    -2.179000000     7.044000000
O     5.721000000     6.982000000     1.913000000
H     5.461000000     7.845000000     1.592000000
H     4.895000000     6.517000000     2.046000000
O     4.897000000     3.232000000     8.415000000
H     5.317000000     3.850000000     7.817000000
H     5.466000000     3.217000000     9.184000000
O     7.413000000     0.289000000     7.222000000
H     8.168000000    -0.045000000     6.738000000
H     6.702000000     0.301000000     6.581000000
O     7.425000000    -1.608000000     3.760000000
H     7.288000000    -0.693000000     3.517000000
H     7.999000000    -1.569000000     4.526000000
O     3.024000000     6.105000000     6.890000000
H     3.619000000     6.512000000     7.519000000
H     2.626000000     5.379000000     7.371000000
O     6.193000000     1.744000000     2.334000000
H     5.344000000     2.032000000     2.671000000
H     6.753000000     2.517000000     2.403000000
O     0.674000000    -0.698000000     8.756000000
H     1.269000000    -0.428000000     8.057000000
H     0.886000000    -0.119000000     9.488000000
O     2.648000000     0.048000000     6.735000000
H     3.272000000     0.341000000     7.398000000
H     2.619000000     0.763000000     6.099000000
O     4.393000000    -2.512000000     4.154000000
H     3.706000000    -2.296000000     3.523000000
H     5.107000000    -1.911000000     3.945000000
O     5.777000000     0.356000000     5.025000000
H     5.463000000     1.097000000     4.507000000
H     5.004000000    -0.194000000     5.150000000
O     0.272000000     3.137000000     7.931000000
H     0.384000000     2.932000000     7.003000000
H    -0.411000000     2.537000000     8.229000000
