215
-1454.19478
C    -2.005000000    -0.833000000     4.323000000
H    -1.711000000    -1.822000000     3.982000000
C    -2.965000000    -0.072000000     3.644000000
C    -3.262000000     1.167000000     4.108000000
H    -3.939000000     1.841000000     3.589000000
C    -3.627000000    -0.587000000     2.386000000
O    -3.989000000    -2.013000000     2.556000000
H    -2.855000000    -0.449000000     1.615000000
O    -4.770000000     0.157000000     2.057000000
C    -4.800000000     0.603000000     0.741000000
C    -4.381000000     1.907000000     0.492000000
H    -4.120000000     2.495000000     1.368000000
C    -4.151000000     2.323000000    -0.823000000
O    -3.512000000     3.528000000    -0.984000000
C    -4.369000000     1.490000000    -1.890000000
C    -4.022000000     1.758000000    -3.313000000
H    -4.626000000     1.185000000    -4.019000000
C    -2.594000000     1.530000000    -3.728000000
C    -2.240000000     0.315000000    -4.371000000
H    -2.919000000    -0.534000000    -4.368000000
H    -4.331000000     2.797000000    -3.448000000
C    -4.769000000     0.209000000    -1.693000000
H    -4.657000000    -0.516000000    -2.495000000
C    -4.932000000    -0.271000000    -0.334000000
C    -5.373000000    -1.718000000    -0.018000000
H    -6.055000000    -2.128000000    -0.767000000
H    -6.044000000    -1.623000000     0.839000000
C    -4.276000000    -2.665000000     0.185000000
C    -3.693000000    -3.345000000    -0.887000000
H    -4.220000000    -3.160000000    -1.819000000
C    -3.623000000    -2.783000000     1.466000000
C    -2.425000000    -3.490000000     1.578000000
H    -1.929000000    -3.415000000     2.543000000
C    -1.907000000    -4.224000000     0.511000000
O    -0.709000000    -4.900000000     0.679000000
C     0.435000000    -4.221000000     0.157000000
C     1.696000000    -4.282000000     1.019000000
C     2.989000000    -4.313000000     0.514000000
H     3.183000000    -4.281000000    -0.555000000
C     1.583000000    -4.388000000     2.413000000
H     0.620000000    -4.489000000     2.908000000
O     0.707000000    -4.734000000    -1.163000000
H     0.147000000    -3.169000000     0.015000000
C    -2.558000000    -4.155000000    -0.719000000
C    -1.998000000    -4.749000000    -2.075000000
H    -2.818000000    -4.784000000    -2.795000000
H    -1.706000000    -5.767000000    -1.808000000
C    -0.892000000    -3.942000000    -2.734000000
C    -1.197000000    -3.067000000    -3.812000000
H    -2.211000000    -2.865000000    -4.148000000
C     0.406000000    -4.003000000    -2.260000000
C     1.370000000    -3.102000000    -2.730000000
H     2.385000000    -3.149000000    -2.343000000
C     1.045000000    -2.228000000    -3.730000000
O     2.003000000    -1.393000000    -4.065000000
C     1.899000000    -0.108000000    -3.512000000
C     3.271000000     0.437000000    -3.041000000
C     4.321000000    -0.414000000    -2.883000000
H     4.190000000    -1.453000000    -3.172000000
C     3.369000000     1.697000000    -2.483000000
H     2.506000000     2.349000000    -2.593000000
O     1.353000000     0.868000000    -4.441000000
H     1.230000000    -0.119000000    -2.640000000
C    -0.212000000    -2.275000000    -4.327000000
C    -0.549000000    -1.229000000    -5.378000000
H    -1.305000000    -1.563000000    -6.091000000
H     0.294000000    -1.192000000    -6.071000000
C    -0.928000000     0.112000000    -4.701000000
C     0.003000000     1.070000000    -4.284000000
C    -0.334000000     2.295000000    -3.763000000
H     0.394000000     2.997000000    -3.365000000
C    -1.685000000     2.557000000    -3.544000000
O    -2.069000000     3.649000000    -2.824000000
C    -2.135000000     3.504000000    -1.424000000
H    -1.647000000     2.571000000    -1.107000000
C    -1.351000000     4.553000000    -0.642000000
C    -1.503000000     4.612000000     0.757000000
H    -2.217000000     3.955000000     1.247000000
C    -0.350000000     5.270000000    -1.295000000
H    -0.147000000     5.158000000    -2.357000000
C     0.468000000     6.119000000    -0.579000000
O     1.522000000     6.850000000    -1.126000000
C     0.251000000     6.284000000     0.783000000
H     0.890000000     6.897000000     1.413000000
C    -0.690000000     5.511000000     1.432000000
O    -0.846000000     5.741000000     2.750000000
C    -1.960000000     5.397000000     3.516000000
C    -1.950000000     4.222000000     4.168000000
H    -1.061000000     3.597000000     4.176000000
C    -3.093000000     6.238000000     3.475000000
H    -3.075000000     7.083000000     2.792000000
C    -4.238000000     5.899000000     4.265000000
H    -5.044000000     6.595000000     4.479000000
C    -4.165000000     4.735000000     4.993000000
H    -4.981000000     4.432000000     5.645000000
C    -3.071000000     3.849000000     4.912000000
O    -2.981000000     2.848000000     5.805000000
C    -2.726000000     1.583000000     5.310000000
C    -1.771000000     0.881000000     5.977000000
H    -1.395000000     1.227000000     6.937000000
C    -1.338000000    -0.305000000     5.440000000
O    -0.239000000    -0.932000000     5.997000000
C     0.049000000    -2.282000000     5.903000000
C     1.256000000    -2.690000000     5.332000000
H     2.033000000    -2.018000000     4.977000000
C    -0.931000000    -3.243000000     6.154000000
H    -1.940000000    -2.949000000     6.432000000
C    -0.611000000    -4.572000000     6.076000000
H    -1.349000000    -5.355000000     6.232000000
C     0.583000000    -4.998000000     5.531000000
H     0.858000000    -6.046000000     5.440000000
C     1.559000000    -4.036000000     5.185000000
O     2.658000000    -4.446000000     4.582000000
C     2.702000000    -4.357000000     3.187000000
C     3.962000000    -4.292000000     2.620000000
H     4.843000000    -4.397000000     3.248000000
C     4.176000000    -4.330000000     1.268000000
O     5.486000000    -4.332000000     0.775000000
C     5.953000000    -3.949000000    -0.414000000
C     5.909000000    -2.644000000    -0.763000000
H     5.448000000    -1.937000000    -0.078000000
C     6.575000000    -4.932000000    -1.165000000
H     6.592000000    -6.007000000    -1.006000000
C     7.227000000    -4.486000000    -2.349000000
H     7.707000000    -5.231000000    -2.978000000
C     7.186000000    -3.155000000    -2.761000000
H     7.768000000    -2.856000000    -3.629000000
C     6.496000000    -2.240000000    -1.977000000
O     6.580000000    -0.970000000    -2.243000000
C     5.546000000    -0.028000000    -2.337000000
C     5.777000000     1.290000000    -2.012000000
H     6.706000000     1.550000000    -1.512000000
C     4.642000000     2.186000000    -2.023000000
O     4.835000000     3.438000000    -1.528000000
C     4.052000000     4.409000000    -2.075000000
C     4.271000000     4.750000000    -3.407000000
H     4.992000000     4.182000000    -3.989000000
C     3.540000000     5.797000000    -3.963000000
H     3.645000000     5.998000000    -5.026000000
C     2.550000000     6.423000000    -3.184000000
H     1.807000000     7.082000000    -3.624000000
C     2.433000000     6.145000000    -1.834000000
C     3.173000000     5.069000000    -1.263000000
H     2.995000000     4.712000000    -0.251000000
C     1.007000000     0.256000000     2.523000000
H     1.030000000    -0.178000000     3.519000000
C     0.361000000    -0.499000000     1.483000000
H     0.027000000    -1.520000000     1.650000000
C     0.132000000     0.125000000     0.238000000
H    -0.406000000    -0.345000000    -0.496000000
C     0.765000000     1.340000000    -0.017000000
H     0.571000000     1.769000000    -0.996000000
C     1.630000000     1.918000000     0.944000000
H     2.156000000     2.823000000     0.652000000
C     1.808000000     1.371000000     2.215000000
C     2.626000000     2.106000000     3.275000000
O     3.292000000     3.134000000     3.093000000
O     2.627000000     1.718000000     4.455000000
O     1.738000000     6.998000000     5.001000000
H     1.271000000     7.679000000     5.484000000
H     1.469000000     6.180000000     5.420000000
O     4.972000000     4.453000000     4.571000000
H     4.315000000     3.924000000     4.119000000
H     4.485000000     5.205000000     4.908000000
O     2.998000000     5.849000000     2.540000000
H     3.194000000     4.923000000     2.395000000
H     2.433000000     5.857000000     3.312000000
O     0.774000000     3.179000000     8.027000000
H     1.069000000     2.282000000     7.871000000
H    -0.133000000     3.085000000     8.320000000
O     3.350000000    -1.156000000     1.186000000
H     2.450000000    -1.020000000     1.482000000
H     3.356000000    -2.050000000     0.842000000
O     1.953000000     0.888000000     6.960000000
H     1.878000000     1.184000000     6.053000000
H     1.751000000    -0.046000000     6.925000000
O     4.775000000    -2.347000000     6.744000000
H     4.752000000    -1.836000000     5.935000000
H     5.594000000    -2.841000000     6.692000000
O     7.712000000     3.802000000     5.685000000
H     6.772000000     3.626000000     5.642000000
H     7.777000000     4.757000000     5.695000000
O     7.617000000     0.076000000     5.694000000
H     6.661000000     0.119000000     5.717000000
H     7.835000000     0.081000000     4.762000000
O     5.625000000     6.153000000     0.693000000
H     5.007000000     5.979000000     1.404000000
H     5.666000000     7.108000000     0.640000000
O     5.793000000     0.113000000     1.523000000
H     4.922000000    -0.219000000     1.304000000
H     5.695000000     1.065000000     1.514000000
O     8.427000000     3.041000000     2.157000000
H     8.490000000     3.913000000     1.769000000
H     7.557000000     2.729000000     1.908000000
O     4.181000000     5.957000000     7.104000000
H     3.236000000     6.035000000     7.234000000
H     4.504000000     6.857000000     7.153000000
O     5.487000000     2.911000000     1.627000000
H     4.659000000     3.005000000     2.097000000
H     5.617000000     3.758000000     1.200000000
O     7.891000000    -0.857000000     3.101000000
H     7.196000000    -0.606000000     2.492000000
H     7.770000000    -1.798000000     3.228000000
O     5.003000000     1.890000000     5.719000000
H     4.995000000     2.844000000     5.640000000
H     4.119000000     1.620000000     5.469000000
O     5.654000000     1.561000000     8.286000000
H     5.651000000     1.463000000     7.333000000
H     5.573000000     2.504000000     8.430000000
O     4.740000000    -1.031000000     4.351000000
H     5.271000000    -1.332000000     3.613000000
H     4.477000000    -0.143000000     4.111000000
O     1.544000000     4.297000000     5.575000000
H     1.119000000     3.676000000     6.166000000
H     2.129000000     3.758000000     5.042000000
