215
-1446.06745
C    -3.132000000     0.508000000     4.040000000
H    -3.590000000    -0.470000000     3.918000000
C    -3.141000000     1.344000000     2.926000000
C    -2.465000000     2.527000000     2.964000000
H    -2.330000000     3.111000000     2.057000000
C    -3.634000000     0.879000000     1.647000000
O    -4.642000000    -0.111000000     1.760000000
H    -2.781000000     0.489000000     1.073000000
O    -4.230000000     1.941000000     0.873000000
C    -4.068000000     2.084000000    -0.469000000
C    -3.256000000     3.163000000    -0.853000000
H    -2.965000000     3.853000000    -0.064000000
C    -2.785000000     3.201000000    -2.181000000
O    -1.783000000     4.156000000    -2.457000000
C    -3.196000000     2.146000000    -3.041000000
C    -2.610000000     2.109000000    -4.451000000
H    -3.370000000     1.618000000    -5.064000000
C    -1.361000000     1.336000000    -4.457000000
C    -1.268000000    -0.007000000    -4.749000000
H    -2.225000000    -0.472000000    -4.968000000
H    -2.501000000     3.104000000    -4.887000000
C    -4.201000000     1.234000000    -2.729000000
H    -4.531000000     0.499000000    -3.459000000
C    -4.606000000     1.185000000    -1.419000000
C    -5.412000000    -0.068000000    -0.996000000
H    -5.852000000    -0.485000000    -1.905000000
H    -6.262000000     0.223000000    -0.375000000
C    -4.549000000    -1.143000000    -0.353000000
C    -4.114000000    -2.222000000    -1.174000000
H    -4.224000000    -2.104000000    -2.249000000
C    -4.439000000    -1.236000000     1.054000000
C    -3.604000000    -2.283000000     1.614000000
H    -3.293000000    -2.293000000     2.655000000
C    -3.247000000    -3.354000000     0.833000000
O    -2.445000000    -4.299000000     1.410000000
C    -1.036000000    -4.101000000     1.064000000
C    -0.204000000    -4.285000000     2.246000000
C     1.082000000    -4.565000000     2.074000000
H     1.477000000    -4.703000000     1.071000000
C    -0.753000000    -4.166000000     3.485000000
H    -1.805000000    -3.933000000     3.627000000
O    -0.642000000    -5.011000000    -0.014000000
H    -0.932000000    -3.040000000     0.794000000
C    -3.545000000    -3.380000000    -0.624000000
C    -3.043000000    -4.529000000    -1.450000000
H    -3.759000000    -4.654000000    -2.265000000
H    -2.950000000    -5.467000000    -0.900000000
C    -1.625000000    -4.181000000    -2.028000000
C    -1.492000000    -3.528000000    -3.250000000
H    -2.368000000    -3.283000000    -3.844000000
C    -0.490000000    -4.383000000    -1.213000000
C     0.722000000    -3.887000000    -1.647000000
H     1.558000000    -4.023000000    -0.967000000
C     0.917000000    -3.345000000    -2.871000000
O     2.164000000    -2.821000000    -3.227000000
C     2.348000000    -1.404000000    -3.068000000
C     3.642000000    -1.061000000    -2.293000000
C     4.085000000    -1.999000000    -1.404000000
H     3.634000000    -2.986000000    -1.341000000
C     4.393000000     0.120000000    -2.492000000
H     4.072000000     0.803000000    -3.275000000
O     2.278000000    -0.660000000    -4.271000000
H     1.506000000    -1.052000000    -2.453000000
C    -0.250000000    -3.055000000    -3.632000000
C    -0.046000000    -2.222000000    -4.997000000
H    -0.815000000    -2.543000000    -5.703000000
H     0.879000000    -2.452000000    -5.529000000
C    -0.092000000    -0.652000000    -4.766000000
C     1.070000000    -0.014000000    -4.433000000
C     1.084000000     1.349000000    -4.125000000
H     2.054000000     1.814000000    -3.971000000
C    -0.178000000     2.004000000    -4.192000000
O    -0.120000000     3.299000000    -3.885000000
C    -0.419000000     3.670000000    -2.479000000
H    -0.282000000     2.853000000    -1.755000000
C     0.494000000     4.745000000    -1.918000000
C     0.043000000     5.480000000    -0.804000000
H    -0.826000000     5.169000000    -0.231000000
C     1.794000000     4.868000000    -2.345000000
H     2.235000000     4.155000000    -3.037000000
C     2.733000000     5.644000000    -1.638000000
O     4.166000000     5.456000000    -1.764000000
C     2.254000000     6.445000000    -0.626000000
H     2.927000000     7.023000000     0.003000000
C     0.913000000     6.441000000    -0.243000000
O     0.556000000     7.238000000     0.860000000
C    -0.369000000     6.736000000     1.685000000
C    -0.141000000     5.626000000     2.561000000
H     0.784000000     5.061000000     2.488000000
C    -1.573000000     7.466000000     1.872000000
H    -1.756000000     8.379000000     1.312000000
C    -2.560000000     7.043000000     2.776000000
H    -3.510000000     7.548000000     2.931000000
C    -2.419000000     5.879000000     3.450000000
H    -3.100000000     5.543000000     4.228000000
C    -1.161000000     5.193000000     3.392000000
O    -1.008000000     4.071000000     4.170000000
C    -1.726000000     2.868000000     4.055000000
C    -1.756000000     2.083000000     5.207000000
H    -1.253000000     2.375000000     6.125000000
C    -2.457000000     0.891000000     5.222000000
O    -2.431000000     0.108000000     6.382000000
C    -2.602000000    -1.247000000     6.432000000
C    -1.545000000    -2.030000000     5.942000000
H    -0.663000000    -1.513000000     5.572000000
C    -3.716000000    -1.846000000     6.973000000
H    -4.507000000    -1.239000000     7.406000000
C    -3.809000000    -3.199000000     7.104000000
H    -4.709000000    -3.681000000     7.477000000
C    -2.729000000    -4.031000000     6.657000000
H    -2.703000000    -5.117000000     6.696000000
C    -1.656000000    -3.399000000     6.090000000
O    -0.511000000    -4.126000000     5.893000000
C     0.054000000    -4.321000000     4.638000000
C     1.359000000    -4.720000000     4.464000000
H     2.008000000    -4.949000000     5.306000000
C     1.923000000    -4.762000000     3.170000000
O     3.284000000    -5.261000000     3.056000000
C     4.074000000    -5.130000000     1.958000000
C     4.640000000    -3.927000000     1.584000000
H     4.670000000    -3.006000000     2.161000000
C     4.187000000    -6.256000000     1.134000000
H     3.730000000    -7.168000000     1.510000000
C     4.695000000    -6.172000000    -0.126000000
H     4.759000000    -7.087000000    -0.710000000
C     5.381000000    -5.013000000    -0.455000000
H     5.950000000    -4.946000000    -1.379000000
C     5.322000000    -3.899000000     0.403000000
O     5.906000000    -2.651000000     0.136000000
C     5.270000000    -1.767000000    -0.699000000
C     5.972000000    -0.576000000    -0.880000000
H     6.860000000    -0.397000000    -0.279000000
C     5.524000000     0.376000000    -1.764000000
O     6.429000000     1.420000000    -2.125000000
C     6.021000000     2.525000000    -2.787000000
C     6.393000000     2.851000000    -4.128000000
H     7.078000000     2.220000000    -4.690000000
C     5.896000000     3.987000000    -4.741000000
H     6.360000000     4.392000000    -5.636000000
C     5.025000000     4.774000000    -3.974000000
H     4.701000000     5.758000000    -4.303000000
C     4.697000000     4.488000000    -2.651000000
C     5.205000000     3.348000000    -2.046000000
H     4.979000000     3.143000000    -1.003000000
C     0.484000000     0.117000000     2.448000000
H     0.310000000    -0.079000000     3.503000000
C    -0.305000000    -0.353000000     1.454000000
H    -1.096000000    -1.033000000     1.759000000
C    -0.125000000     0.080000000     0.140000000
H    -0.719000000    -0.201000000    -0.662000000
C     0.969000000     0.926000000    -0.175000000
H     1.159000000     1.077000000    -1.235000000
C     1.833000000     1.339000000     0.828000000
H     2.722000000     1.939000000     0.655000000
C     1.543000000     0.950000000     2.148000000
C     2.467000000     1.510000000     3.197000000
O     3.160000000     2.483000000     2.939000000
O     2.393000000     1.123000000     4.353000000
O     2.336000000     6.577000000     4.541000000
H     1.625000000     6.096000000     4.964000000
H     2.645000000     5.990000000     3.851000000
O     4.251000000     1.779000000     8.615000000
H     4.369000000     1.896000000     7.672000000
H     3.514000000     2.348000000     8.836000000
O     3.654000000     4.981000000     2.416000000
H     3.426000000     4.081000000     2.648000000
H     4.611000000     4.986000000     2.385000000
O     0.409000000     5.183000000     6.202000000
H     0.892000000     4.418000000     5.890000000
H    -0.507000000     4.985000000     6.007000000
O     4.678000000    -0.935000000     3.849000000
H     5.108000000    -0.156000000     3.496000000
H     3.743000000    -0.766000000     3.733000000
O     2.628000000     3.692000000     5.609000000
H     3.507000000     3.421000000     5.873000000
H     2.466000000     3.217000000     4.794000000
O     8.440000000     2.676000000     5.703000000
H     7.677000000     2.766000000     5.132000000
H     8.073000000     2.465000000     6.562000000
O     6.946000000     5.612000000     2.233000000
H     7.451000000     5.060000000     1.636000000
H     6.570000000     6.290000000     1.672000000
O     1.567000000    -1.656000000     6.780000000
H     2.372000000    -2.061000000     7.101000000
H     1.132000000    -2.349000000     6.283000000
O     7.683000000    -1.980000000     3.757000000
H     8.070000000    -1.106000000     3.805000000
H     6.980000000    -1.896000000     3.113000000
O     8.789000000     0.775000000     3.807000000
H     8.565000000     1.245000000     3.005000000
H     8.465000000     1.336000000     4.512000000
O     5.318000000     7.037000000     5.247000000
H     4.426000000     7.118000000     4.910000000
H     5.598000000     7.938000000     5.405000000
O     5.801000000     1.175000000     2.532000000
H     4.863000000     1.361000000     2.510000000
H     6.202000000     1.908000000     2.065000000
O    -0.354000000     0.187000000     8.817000000
H     0.015000000     0.884000000     8.276000000
H    -1.168000000     0.556000000     9.161000000
O     1.287000000     1.218000000     6.874000000
H     1.266000000     0.262000000     6.825000000
H     1.722000000     1.489000000     6.066000000
O     6.500000000    -0.402000000     6.090000000
H     6.195000000    -1.070000000     5.477000000
H     5.870000000     0.313000000     5.999000000
O     6.315000000     4.224000000     4.691000000
H     5.765000000     4.964000000     4.947000000
H     6.774000000     4.526000000     3.907000000
O     4.727000000     1.737000000     5.703000000
H     5.021000000     2.144000000     4.888000000
H     3.912000000     1.294000000     5.468000000
O     1.808000000     3.203000000     9.002000000
H     1.659000000     2.648000000     8.237000000
H     1.538000000     4.077000000     8.720000000
