215
-1461.51431
C    -4.177000000     1.437000000     3.154000000
H    -4.417000000     0.377000000     3.156000000
C    -4.082000000     2.032000000     1.865000000
C    -3.818000000     3.429000000     1.729000000
H    -3.692000000     3.901000000     0.757000000
C    -4.219000000     1.105000000     0.691000000
O    -4.890000000    -0.149000000     1.069000000
H    -3.185000000     0.911000000     0.370000000
O    -4.969000000     1.579000000    -0.422000000
C    -4.392000000     1.444000000    -1.678000000
C    -3.494000000     2.450000000    -2.141000000
H    -3.519000000     3.330000000    -1.503000000
C    -2.553000000     2.199000000    -3.166000000
O    -1.582000000     3.126000000    -3.374000000
C    -2.630000000     0.999000000    -3.867000000
C    -1.755000000     0.724000000    -5.060000000
H    -2.445000000     0.136000000    -5.669000000
C    -0.393000000     0.097000000    -4.811000000
C    -0.281000000    -1.261000000    -4.891000000
H    -1.118000000    -1.944000000    -5.015000000
H    -1.605000000     1.570000000    -5.734000000
C    -3.515000000     0.032000000    -3.405000000
H    -3.560000000    -0.940000000    -3.889000000
C    -4.420000000     0.207000000    -2.363000000
C    -5.244000000    -0.975000000    -1.888000000
H    -5.348000000    -1.598000000    -2.778000000
H    -6.215000000    -0.708000000    -1.466000000
C    -4.478000000    -1.759000000    -0.835000000
C    -3.846000000    -2.900000000    -1.214000000
H    -3.789000000    -3.203000000    -2.256000000
C    -4.409000000    -1.386000000     0.562000000
C    -3.642000000    -2.137000000     1.449000000
H    -3.523000000    -1.892000000     2.501000000
C    -3.048000000    -3.295000000     0.983000000
O    -2.225000000    -3.929000000     1.870000000
C    -0.823000000    -3.752000000     1.570000000
C    -0.111000000    -3.418000000     2.863000000
C     1.005000000    -4.197000000     3.302000000
H     1.264000000    -5.098000000     2.752000000
C    -0.395000000    -2.217000000     3.510000000
H    -1.216000000    -1.613000000     3.135000000
O    -0.263000000    -4.880000000     0.888000000
H    -0.649000000    -2.848000000     0.967000000
C    -3.077000000    -3.706000000    -0.370000000
C    -2.364000000    -4.931000000    -0.989000000
H    -2.915000000    -5.316000000    -1.849000000
H    -2.466000000    -5.739000000    -0.263000000
C    -0.933000000    -4.765000000    -1.430000000
C    -0.617000000    -4.301000000    -2.694000000
H    -1.397000000    -4.253000000    -3.449000000
C     0.079000000    -4.724000000    -0.431000000
C     1.380000000    -4.377000000    -0.732000000
H     2.063000000    -4.394000000     0.113000000
C     1.734000000    -4.101000000    -2.039000000
O     2.966000000    -3.582000000    -2.410000000
C     3.074000000    -2.129000000    -2.301000000
C     4.316000000    -1.653000000    -1.458000000
C     4.853000000    -2.594000000    -0.524000000
H     4.433000000    -3.584000000    -0.368000000
C     4.922000000    -0.390000000    -1.516000000
H     4.489000000     0.393000000    -2.133000000
O     3.153000000    -1.551000000    -3.639000000
H     2.181000000    -1.650000000    -1.873000000
C     0.742000000    -3.972000000    -3.008000000
C     1.018000000    -3.411000000    -4.361000000
H     0.220000000    -3.764000000    -5.018000000
H     1.974000000    -3.711000000    -4.796000000
C     0.894000000    -1.885000000    -4.455000000
C     2.030000000    -1.075000000    -4.195000000
C     1.905000000     0.296000000    -4.263000000
H     2.745000000     0.907000000    -3.943000000
C     0.724000000     0.904000000    -4.471000000
O     0.458000000     2.288000000    -4.275000000
C    -0.165000000     2.811000000    -3.123000000
H    -0.134000000     2.071000000    -2.310000000
C     0.496000000     3.988000000    -2.440000000
C    -0.319000000     5.081000000    -1.986000000
H    -1.395000000     5.027000000    -2.134000000
C     1.826000000     3.934000000    -2.110000000
H     2.441000000     3.053000000    -2.278000000
C     2.417000000     5.015000000    -1.448000000
O     3.692000000     4.986000000    -0.976000000
C     1.627000000     6.084000000    -1.137000000
H     2.030000000     6.950000000    -0.619000000
C     0.259000000     6.125000000    -1.332000000
O    -0.457000000     7.158000000    -0.894000000
C    -1.682000000     7.092000000    -0.220000000
C    -1.798000000     6.236000000     0.897000000
H    -0.947000000     5.678000000     1.279000000
C    -2.867000000     7.676000000    -0.769000000
H    -2.779000000     8.266000000    -1.677000000
C    -4.005000000     7.731000000     0.032000000
H    -4.846000000     8.355000000    -0.261000000
C    -4.052000000     6.978000000     1.211000000
H    -4.873000000     7.023000000     1.922000000
C    -2.993000000     6.205000000     1.609000000
O    -2.990000000     5.490000000     2.799000000
C    -3.484000000     4.159000000     2.863000000
C    -3.618000000     3.537000000     4.124000000
H    -3.495000000     4.244000000     4.940000000
C    -4.007000000     2.170000000     4.267000000
O    -4.098000000     1.609000000     5.543000000
C    -3.378000000     0.513000000     5.832000000
C    -2.121000000     0.373000000     5.305000000
H    -1.603000000     1.083000000     4.666000000
C    -3.948000000    -0.418000000     6.817000000
H    -4.939000000    -0.255000000     7.232000000
C    -3.133000000    -1.461000000     7.199000000
H    -3.407000000    -2.250000000     7.894000000
C    -1.842000000    -1.621000000     6.675000000
H    -1.278000000    -2.449000000     7.097000000
C    -1.355000000    -0.739000000     5.743000000
O    -0.007000000    -0.864000000     5.399000000
C     0.379000000    -1.898000000     4.592000000
C     1.458000000    -2.630000000     5.017000000
H     2.063000000    -2.178000000     5.798000000
C     1.751000000    -3.777000000     4.317000000
O     2.894000000    -4.429000000     4.549000000
C     3.815000000    -4.706000000     3.529000000
C     4.604000000    -3.723000000     2.912000000
H     4.577000000    -2.709000000     3.302000000
C     3.881000000    -6.019000000     3.075000000
H     3.336000000    -6.759000000     3.655000000
C     4.820000000    -6.394000000     2.099000000
H     4.924000000    -7.380000000     1.654000000
C     5.597000000    -5.422000000     1.516000000
H     6.238000000    -5.659000000     0.670000000
C     5.477000000    -4.072000000     1.885000000
O     6.260000000    -3.035000000     1.333000000
C     5.903000000    -2.227000000     0.283000000
C     6.457000000    -0.938000000     0.217000000
H     7.219000000    -0.630000000     0.928000000
C     5.989000000    -0.017000000    -0.716000000
O     6.588000000     1.193000000    -0.702000000
C     6.141000000     2.234000000    -1.406000000
C     6.386000000     2.335000000    -2.804000000
H     7.042000000     1.553000000    -3.180000000
C     5.864000000     3.386000000    -3.532000000
H     6.103000000     3.423000000    -4.592000000
C     5.039000000     4.307000000    -2.939000000
H     4.601000000     5.079000000    -3.567000000
C     4.688000000     4.166000000    -1.593000000
C     5.236000000     3.109000000    -0.807000000
H     4.973000000     3.022000000     0.244000000
C     0.504000000     1.994000000     1.659000000
H     0.331000000     3.049000000     1.859000000
C    -0.184000000     1.328000000     0.613000000
H    -0.961000000     1.960000000     0.189000000
C     0.132000000     0.044000000     0.208000000
H    -0.414000000    -0.435000000    -0.676000000
C     1.085000000    -0.592000000     1.020000000
H     1.250000000    -1.647000000     0.814000000
C     1.687000000    -0.026000000     2.111000000
H     2.424000000    -0.572000000     2.694000000
C     1.453000000     1.277000000     2.369000000
C     2.241000000     1.985000000     3.476000000
O     3.176000000     1.427000000     3.983000000
O     2.064000000     3.234000000     3.698000000
O     8.195000000     2.444000000     2.526000000
H     8.871000000     2.953000000     2.974000000
H     7.383000000     2.675000000     2.976000000
O     0.300000000     6.581000000     3.536000000
H     0.890000000     6.366000000     4.259000000
H     0.709000000     6.183000000     2.768000000
O     3.302000000     3.198000000     8.673000000
H     3.682000000     2.653000000     7.983000000
H     3.420000000     2.687000000     9.473000000
O     6.923000000     5.265000000     5.764000000
H     6.143000000     4.921000000     5.329000000
H     7.267000000     5.919000000     5.156000000
O     5.626000000     3.028000000     3.341000000
H     4.886000000     2.558000000     3.726000000
H     5.359000000     3.947000000     3.352000000
O     2.143000000     5.214000000     1.992000000
H     2.266000000     4.498000000     2.615000000
H     2.623000000     4.938000000     1.211000000
O     2.608000000     7.716000000     6.720000000
H     2.195000000     6.978000000     6.272000000
H     3.294000000     7.317000000     7.256000000
O     8.431000000     0.772000000     4.884000000
H     9.386000000     0.815000000     4.931000000
H     8.222000000     1.057000000     3.994000000
O    -1.153000000     0.949000000     8.523000000
H    -0.456000000     0.531000000     8.017000000
H    -1.934000000     0.432000000     8.327000000
O     6.852000000    -1.629000000     5.414000000
H     5.972000000    -1.373000000     5.141000000
H     7.421000000    -0.942000000     5.067000000
O     4.073000000     2.065000000     6.469000000
H     3.558000000     1.733000000     5.733000000
H     4.909000000     2.323000000     6.079000000
O     4.638000000     5.444000000     4.212000000
H     4.514000000     6.390000000     4.287000000
H     4.002000000     5.069000000     4.821000000
O    -1.164000000     4.149000000     7.240000000
H    -1.046000000     4.356000000     6.312000000
H    -1.225000000     3.195000000     7.266000000
O     2.800000000    -0.743000000     8.406000000
H     2.006000000    -1.111000000     8.794000000
H     2.597000000     0.183000000     8.276000000
O    -0.663000000     4.100000000     4.586000000
H     0.065000000     3.533000000     4.330000000
H    -0.641000000     4.818000000     3.954000000
O     4.462000000    -0.702000000     4.842000000
H     3.989000000    -0.873000000     5.656000000
H     3.928000000    -0.050000000     4.387000000
O     3.976000000     7.251000000     1.689000000
H     4.117000000     7.771000000     2.480000000
H     3.273000000     6.646000000     1.923000000
O     2.140000000     5.277000000     5.341000000
H     1.911000000     4.970000000     6.218000000
H     1.977000000     4.523000000     4.774000000
O     1.496000000     4.896000000     7.921000000
H     0.667000000     4.452000000     8.100000000
H     2.167000000     4.278000000     8.213000000
