215
-1432.17765
C    -4.488000000     0.899000000     3.232000000
H    -4.493000000    -0.183000000     3.334000000
C    -4.352000000     1.460000000     1.896000000
C    -4.219000000     2.831000000     1.747000000
H    -4.060000000     3.152000000     0.721000000
C    -4.305000000     0.574000000     0.646000000
O    -4.802000000    -0.776000000     0.836000000
H    -3.256000000     0.724000000     0.350000000
O    -4.996000000     1.104000000    -0.507000000
C    -4.216000000     1.134000000    -1.700000000
C    -3.386000000     2.163000000    -2.055000000
H    -3.305000000     3.001000000    -1.367000000
C    -2.525000000     2.115000000    -3.165000000
O    -1.609000000     3.155000000    -3.314000000
C    -2.602000000     1.044000000    -3.999000000
C    -1.725000000     0.943000000    -5.253000000
H    -2.249000000     0.340000000    -5.998000000
C    -0.334000000     0.324000000    -4.904000000
C    -0.153000000    -1.025000000    -4.763000000
H    -0.914000000    -1.723000000    -5.101000000
H    -1.621000000     1.935000000    -5.698000000
C    -3.352000000    -0.073000000    -3.689000000
H    -3.270000000    -1.036000000    -4.187000000
C    -4.134000000     0.049000000    -2.477000000
C    -4.968000000    -1.135000000    -2.049000000
H    -5.188000000    -1.710000000    -2.952000000
H    -5.936000000    -0.804000000    -1.669000000
C    -4.164000000    -2.015000000    -1.098000000
C    -3.543000000    -3.176000000    -1.595000000
H    -3.457000000    -3.283000000    -2.674000000
C    -4.107000000    -1.790000000     0.258000000
C    -3.479000000    -2.634000000     1.128000000
H    -3.466000000    -2.442000000     2.197000000
C    -2.796000000    -3.762000000     0.645000000
O    -1.929000000    -4.409000000     1.501000000
C    -0.597000000    -3.949000000     1.374000000
C    -0.060000000    -3.677000000     2.787000000
C     1.145000000    -4.327000000     3.181000000
H     1.525000000    -5.066000000     2.479000000
C    -0.524000000    -2.704000000     3.633000000
H    -1.443000000    -2.185000000     3.375000000
O     0.031000000    -5.043000000     0.665000000
H    -0.585000000    -3.121000000     0.650000000
C    -2.800000000    -3.966000000    -0.780000000
C    -1.958000000    -5.113000000    -1.349000000
H    -2.328000000    -5.385000000    -2.340000000
H    -2.022000000    -5.971000000    -0.677000000
C    -0.591000000    -4.715000000    -1.626000000
C    -0.228000000    -4.285000000    -2.861000000
H    -0.933000000    -4.395000000    -3.680000000
C     0.360000000    -4.763000000    -0.615000000
C     1.629000000    -4.322000000    -0.871000000
H     2.442000000    -4.289000000    -0.151000000
C     1.903000000    -3.817000000    -2.111000000
O     3.126000000    -3.130000000    -2.174000000
C     3.177000000    -1.650000000    -2.075000000
C     4.376000000    -1.174000000    -1.236000000
C     4.803000000    -1.960000000    -0.166000000
H     4.355000000    -2.921000000     0.073000000
C     4.898000000     0.114000000    -1.380000000
H     4.553000000     0.762000000    -2.182000000
O     3.225000000    -1.099000000    -3.343000000
H     2.275000000    -1.369000000    -1.510000000
C     0.985000000    -3.707000000    -3.107000000
C     1.397000000    -3.009000000    -4.415000000
H     0.715000000    -3.549000000    -5.076000000
H     2.443000000    -3.160000000    -4.688000000
C     1.124000000    -1.552000000    -4.375000000
C     2.101000000    -0.639000000    -3.937000000
C     1.893000000     0.768000000    -3.996000000
H     2.592000000     1.399000000    -3.453000000
C     0.709000000     1.248000000    -4.457000000
O     0.489000000     2.618000000    -4.300000000
C    -0.182000000     2.922000000    -3.032000000
H    -0.072000000     2.064000000    -2.352000000
C     0.330000000     4.134000000    -2.339000000
C    -0.491000000     5.062000000    -1.681000000
H    -1.562000000     4.958000000    -1.522000000
C     1.715000000     4.355000000    -2.374000000
H     2.297000000     3.618000000    -2.922000000
C     2.306000000     5.404000000    -1.756000000
O     3.633000000     5.737000000    -1.951000000
C     1.530000000     6.247000000    -0.917000000
H     1.997000000     7.050000000    -0.353000000
C     0.127000000     6.064000000    -0.909000000
O    -0.572000000     6.863000000    -0.064000000
C    -1.940000000     6.741000000     0.227000000
C    -2.311000000     6.050000000     1.370000000
H    -1.454000000     5.707000000     1.945000000
C    -2.924000000     7.094000000    -0.696000000
H    -2.633000000     7.607000000    -1.609000000
C    -4.274000000     6.599000000    -0.534000000
H    -5.068000000     6.706000000    -1.269000000
C    -4.655000000     6.019000000     0.672000000
H    -5.674000000     5.669000000     0.816000000
C    -3.669000000     5.726000000     1.590000000
O    -4.079000000     5.006000000     2.714000000
C    -4.275000000     3.653000000     2.863000000
C    -4.412000000     3.075000000     4.114000000
H    -4.474000000     3.781000000     4.938000000
C    -4.539000000     1.711000000     4.328000000
O    -4.517000000     1.173000000     5.619000000
C    -3.809000000     0.098000000     6.043000000
C    -2.523000000    -0.204000000     5.571000000
H    -1.931000000     0.529000000     5.029000000
C    -4.392000000    -0.867000000     6.807000000
H    -5.377000000    -0.669000000     7.222000000
C    -3.691000000    -2.008000000     7.215000000
H    -4.156000000    -2.749000000     7.860000000
C    -2.397000000    -2.227000000     6.882000000
H    -1.786000000    -2.992000000     7.354000000
C    -1.786000000    -1.317000000     6.045000000
O    -0.453000000    -1.419000000     5.706000000
C     0.118000000    -2.391000000     4.887000000
C     1.337000000    -3.026000000     5.201000000
H     1.833000000    -2.630000000     6.083000000
C     1.827000000    -4.015000000     4.338000000
O     3.072000000    -4.617000000     4.574000000
C     3.979000000    -4.641000000     3.641000000
C     4.418000000    -3.390000000     3.142000000
H     3.907000000    -2.547000000     3.599000000
C     4.547000000    -5.808000000     3.147000000
H     4.115000000    -6.763000000     3.437000000
C     5.599000000    -5.683000000     2.216000000
H     6.047000000    -6.549000000     1.735000000
C     6.208000000    -4.451000000     1.845000000
H     7.128000000    -4.422000000     1.265000000
C     5.549000000    -3.289000000     2.274000000
O     6.058000000    -2.067000000     1.922000000
C     5.825000000    -1.482000000     0.682000000
C     6.258000000    -0.155000000     0.521000000
H     6.836000000     0.428000000     1.234000000
C     5.817000000     0.621000000    -0.518000000
O     6.306000000     1.895000000    -0.582000000
C     5.937000000     2.889000000    -1.431000000
C     6.881000000     3.267000000    -2.422000000
H     7.848000000     2.771000000    -2.451000000
C     6.599000000     4.212000000    -3.358000000
H     7.234000000     4.485000000    -4.196000000
C     5.449000000     4.983000000    -3.147000000
H     5.193000000     5.685000000    -3.936000000
C     4.617000000     4.802000000    -2.100000000
C     4.798000000     3.663000000    -1.297000000
H     4.026000000     3.421000000    -0.570000000
C     0.722000000     2.506000000     1.401000000
H     0.793000000     3.591000000     1.386000000
C     0.042000000     1.860000000     0.392000000
H    -0.659000000     2.452000000    -0.191000000
C     0.167000000     0.495000000     0.230000000
H    -0.388000000    -0.039000000    -0.577000000
C     1.055000000    -0.199000000     1.066000000
H     1.148000000    -1.266000000     0.876000000
C     1.770000000     0.416000000     2.070000000
H     2.522000000    -0.066000000     2.689000000
C     1.641000000     1.833000000     2.197000000
C     2.488000000     2.576000000     3.200000000
O     3.437000000     1.983000000     3.749000000
O     2.270000000     3.747000000     3.504000000
O     7.469000000     4.079000000     0.980000000
H     8.403000000     3.882000000     1.055000000
H     7.049000000     3.494000000     1.611000000
O     2.266000000     5.738000000     5.179000000
H     2.435000000     5.181000000     4.419000000
H     1.560000000     6.320000000     4.896000000
O     1.234000000     1.914000000     8.006000000
H     1.982000000     1.961000000     7.411000000
H     1.465000000     1.223000000     8.627000000
O     6.642000000     6.006000000     3.252000000
H     6.865000000     5.570000000     4.074000000
H     6.940000000     5.403000000     2.572000000
O     5.917000000     3.080000000     3.102000000
H     5.155000000     2.509000000     3.204000000
H     6.641000000     2.584000000     3.485000000
O     0.286000000     7.319000000     4.684000000
H    -0.039000000     7.307000000     5.584000000
H    -0.461000000     7.615000000     4.164000000
O     4.122000000     3.698000000     8.589000000
H     3.643000000     3.673000000     7.761000000
H     4.151000000     2.786000000     8.877000000
O     4.230000000     4.950000000     1.746000000
H     3.381000000     4.569000000     1.972000000
H     4.871000000     4.360000000     2.142000000
O     4.963000000     6.203000000     6.447000000
H     4.145000000     6.211000000     5.951000000
H     4.772000000     6.715000000     7.233000000
O     7.087000000     4.516000000     6.262000000
H     6.299000000     5.057000000     6.234000000
H     7.629000000     4.917000000     6.941000000
O     6.916000000     2.158000000     7.535000000
H     6.599000000     1.506000000     6.911000000
H     7.036000000     2.951000000     7.012000000
O     6.418000000    -1.796000000     5.863000000
H     6.062000000    -0.989000000     5.492000000
H     7.331000000    -1.809000000     5.578000000
O     3.339000000     0.345000000     6.666000000
H     4.043000000    -0.087000000     6.182000000
H     3.380000000     1.259000000     6.384000000
O    -1.895000000     4.442000000     6.942000000
H    -1.385000000     4.142000000     6.189000000
H    -2.077000000     3.645000000     7.440000000
O    -0.134000000     2.745000000     4.981000000
H     0.018000000     1.866000000     4.633000000
H     0.447000000     3.308000000     4.471000000
O     5.125000000    -0.036000000     4.185000000
H     5.126000000    -0.340000000     3.277000000
H     4.613000000     0.772000000     4.166000000
O     4.472000000     7.832000000     2.304000000
H     5.280000000     7.887000000     2.813000000
H     4.322000000     6.894000000     2.191000000
O     3.123000000     3.042000000     6.123000000
H     2.932000000     3.979000000     6.093000000
H     3.233000000     2.791000000     5.206000000
O     1.209000000     4.771000000     7.839000000
H     1.571000000     4.847000000     6.956000000
H     1.011000000     3.840000000     7.938000000
