215
-1470.99712
C    -4.088000000     1.292000000     3.057000000
H    -4.047000000     0.214000000     3.192000000
C    -4.136000000     1.824000000     1.774000000
C    -4.308000000     3.216000000     1.671000000
H    -4.343000000     3.686000000     0.691000000
C    -4.099000000     0.990000000     0.517000000
O    -4.764000000    -0.283000000     0.794000000
H    -3.055000000     0.741000000     0.275000000
O    -4.767000000     1.629000000    -0.589000000
C    -4.214000000     1.455000000    -1.819000000
C    -3.397000000     2.486000000    -2.282000000
H    -3.291000000     3.446000000    -1.784000000
C    -2.433000000     2.234000000    -3.256000000
O    -1.497000000     3.169000000    -3.517000000
C    -2.452000000     1.057000000    -4.048000000
C    -1.552000000     0.822000000    -5.218000000
H    -2.074000000     0.137000000    -5.889000000
C    -0.212000000     0.248000000    -4.735000000
C    -0.004000000    -1.119000000    -4.744000000
H    -0.885000000    -1.698000000    -5.009000000
H    -1.456000000     1.701000000    -5.859000000
C    -3.333000000     0.082000000    -3.670000000
H    -3.327000000    -0.811000000    -4.290000000
C    -4.226000000     0.238000000    -2.583000000
C    -5.062000000    -0.909000000    -2.150000000
H    -5.341000000    -1.519000000    -3.011000000
H    -5.976000000    -0.512000000    -1.704000000
C    -4.251000000    -1.732000000    -1.159000000
C    -3.606000000    -2.860000000    -1.655000000
H    -3.637000000    -3.176000000    -2.694000000
C    -4.110000000    -1.394000000     0.222000000
C    -3.408000000    -2.250000000     1.072000000
H    -3.387000000    -2.034000000     2.137000000
C    -2.786000000    -3.354000000     0.532000000
O    -2.168000000    -4.149000000     1.445000000
C    -0.698000000    -3.970000000     1.456000000
C    -0.073000000    -3.791000000     2.792000000
C     1.083000000    -4.528000000     3.078000000
H     1.505000000    -5.271000000     2.407000000
C    -0.688000000    -2.889000000     3.711000000
H    -1.617000000    -2.388000000     3.453000000
O    -0.243000000    -5.076000000     0.715000000
H    -0.425000000    -3.030000000     0.955000000
C    -2.895000000    -3.679000000    -0.820000000
C    -2.218000000    -4.891000000    -1.356000000
H    -2.800000000    -5.340000000    -2.164000000
H    -2.194000000    -5.696000000    -0.620000000
C    -0.775000000    -4.694000000    -1.666000000
C    -0.408000000    -4.242000000    -2.936000000
H    -1.137000000    -4.079000000    -3.725000000
C     0.119000000    -4.763000000    -0.564000000
C     1.472000000    -4.401000000    -0.801000000
H     2.203000000    -4.446000000     0.002000000
C     1.858000000    -3.927000000    -2.086000000
O     3.091000000    -3.386000000    -2.028000000
C     3.245000000    -1.941000000    -1.946000000
C     4.464000000    -1.500000000    -1.116000000
C     5.003000000    -2.370000000    -0.126000000
H     4.599000000    -3.377000000    -0.063000000
C     4.900000000    -0.219000000    -1.237000000
H     4.608000000     0.408000000    -2.075000000
O     3.334000000    -1.413000000    -3.298000000
H     2.346000000    -1.589000000    -1.418000000
C     0.928000000    -3.810000000    -3.162000000
C     1.352000000    -3.199000000    -4.458000000
H     0.727000000    -3.541000000    -5.285000000
H     2.364000000    -3.466000000    -4.770000000
C     1.168000000    -1.677000000    -4.301000000
C     2.166000000    -0.879000000    -3.819000000
C     1.987000000     0.495000000    -3.701000000
H     2.847000000     1.087000000    -3.400000000
C     0.775000000     1.055000000    -4.122000000
O     0.604000000     2.449000000    -4.049000000
C    -0.180000000     2.888000000    -2.928000000
H    -0.300000000     2.043000000    -2.234000000
C     0.364000000     4.097000000    -2.288000000
C    -0.440000000     5.037000000    -1.576000000
H    -1.511000000     4.852000000    -1.601000000
C     1.779000000     4.282000000    -2.184000000
H     2.485000000     3.514000000    -2.490000000
C     2.299000000     5.269000000    -1.299000000
O     3.634000000     5.392000000    -1.027000000
C     1.457000000     6.048000000    -0.554000000
H     1.782000000     6.849000000     0.105000000
C     0.123000000     5.985000000    -0.710000000
O    -0.700000000     6.903000000     0.010000000
C    -2.102000000     6.834000000     0.180000000
C    -2.633000000     6.264000000     1.378000000
H    -1.919000000     5.998000000     2.153000000
C    -2.979000000     7.220000000    -0.861000000
H    -2.560000000     7.643000000    -1.769000000
C    -4.374000000     7.113000000    -0.681000000
H    -5.082000000     7.502000000    -1.408000000
C    -4.879000000     6.523000000     0.533000000
H    -5.953000000     6.363000000     0.578000000
C    -3.992000000     6.079000000     1.517000000
O    -4.480000000     5.326000000     2.602000000
C    -4.358000000     4.018000000     2.774000000
C    -4.354000000     3.484000000     4.040000000
H    -4.376000000     4.144000000     4.903000000
C    -4.114000000     2.125000000     4.139000000
O    -3.998000000     1.681000000     5.452000000
C    -3.450000000     0.443000000     5.818000000
C    -2.195000000     0.062000000     5.438000000
H    -1.592000000     0.674000000     4.772000000
C    -4.228000000    -0.487000000     6.552000000
H    -5.153000000    -0.127000000     6.994000000
C    -3.687000000    -1.661000000     6.967000000
H    -4.256000000    -2.225000000     7.701000000
C    -2.380000000    -2.013000000     6.573000000
H    -1.818000000    -2.861000000     6.956000000
C    -1.626000000    -1.117000000     5.878000000
O    -0.281000000    -1.493000000     5.603000000
C     0.098000000    -2.540000000     4.822000000
C     1.366000000    -3.117000000     5.042000000
H     1.940000000    -2.780000000     5.901000000
C     1.839000000    -4.119000000     4.203000000
O     3.067000000    -4.806000000     4.404000000
C     4.054000000    -4.966000000     3.406000000
C     4.794000000    -3.817000000     3.128000000
H     4.476000000    -2.879000000     3.576000000
C     4.364000000    -6.206000000     2.838000000
H     3.920000000    -7.178000000     3.035000000
C     5.409000000    -6.215000000     1.945000000
H     5.538000000    -7.103000000     1.332000000
C     6.004000000    -5.028000000     1.500000000
H     6.578000000    -5.023000000     0.577000000
C     5.762000000    -3.858000000     2.163000000
O     6.420000000    -2.698000000     1.731000000
C     5.969000000    -1.932000000     0.708000000
C     6.434000000    -0.611000000     0.584000000
H     7.147000000    -0.138000000     1.255000000
C     5.848000000     0.280000000    -0.373000000
O     6.333000000     1.575000000    -0.369000000
C     5.919000000     2.569000000    -1.159000000
C     6.649000000     2.869000000    -2.291000000
H     7.539000000     2.322000000    -2.591000000
C     6.399000000     4.043000000    -2.992000000
H     6.991000000     4.287000000    -3.870000000
C     5.399000000     4.889000000    -2.550000000
H     5.078000000     5.716000000    -3.178000000
C     4.625000000     4.543000000    -1.413000000
C     4.849000000     3.340000000    -0.709000000
H     4.379000000     3.068000000     0.233000000
C    -0.687000000     2.262000000     2.009000000
H    -0.920000000     3.322000000     2.072000000
C    -0.817000000     1.723000000     0.672000000
H    -1.301000000     2.388000000    -0.038000000
C    -0.412000000     0.454000000     0.361000000
H    -0.599000000     0.094000000    -0.572000000
C     0.274000000    -0.178000000     1.426000000
H     0.548000000    -1.203000000     1.190000000
C     0.492000000     0.302000000     2.712000000
H     1.266000000    -0.151000000     3.326000000
C     0.092000000     1.667000000     3.007000000
C     0.661000000     2.350000000     4.218000000
O     1.238000000     1.720000000     5.039000000
O     0.687000000     3.577000000     4.277000000
O     3.843000000     6.057000000     5.520000000
H     4.296000000     5.577000000     4.826000000
H     3.195000000     6.589000000     5.059000000
O     0.099000000     1.034000000     7.684000000
H     0.377000000     0.981000000     6.770000000
H     0.492000000     0.267000000     8.099000000
O    -2.015000000     6.826000000     8.576000000
H    -2.443000000     6.063000000     8.186000000
H    -1.142000000     6.516000000     8.814000000
O     5.041000000     5.159000000     3.455000000
H     4.621000000     4.330000000     3.227000000
H     5.542000000     5.397000000     2.675000000
O     4.418000000     2.736000000     2.733000000
H     3.546000000     2.344000000     2.686000000
H     4.944000000     2.096000000     3.212000000
O    -1.163000000     7.119000000     4.768000000
H    -2.066000000     7.296000000     5.033000000
H    -0.964000000     6.265000000     5.151000000
O     3.987000000     1.016000000     8.203000000
H     3.158000000     0.675000000     7.866000000
H     4.048000000     1.899000000     7.838000000
O     1.340000000     6.180000000     3.020000000
H     0.689000000     6.552000000     3.615000000
H     1.146000000     5.243000000     3.008000000
O     0.552000000     6.280000000     9.303000000
H     1.143000000     6.507000000    10.021000000
H     0.955000000     5.514000000     8.894000000
O     0.985000000    -1.188000000     8.873000000
H     1.766000000    -1.542000000     8.446000000
H     0.666000000    -1.904000000     9.421000000
O    -1.953000000     2.497000000     9.195000000
H    -1.358000000     1.966000000     8.666000000
H    -2.031000000     2.020000000    10.021000000
O     3.041000000    -0.287000000     5.383000000
H     2.313000000     0.296000000     5.168000000
H     3.788000000     0.077000000     4.907000000
O    -2.677000000     4.352000000     7.532000000
H    -2.016000000     4.409000000     6.842000000
H    -2.438000000     3.568000000     8.027000000
O     3.471000000    -1.974000000     7.605000000
H     3.946000000    -2.779000000     7.399000000
H     3.501000000    -1.464000000     6.796000000
O    -0.235000000     5.014000000     6.161000000
H     0.320000000     4.889000000     6.931000000
H     0.229000000     4.562000000     5.456000000
O     5.378000000     0.580000000     4.397000000
H     5.491000000     0.422000000     5.335000000
H     6.247000000     0.438000000     4.023000000
O     2.319000000     8.801000000     2.644000000
H     2.097000000     9.242000000     3.464000000
H     1.924000000     7.933000000     2.725000000
O     3.022000000     3.360000000     6.398000000
H     3.093000000     4.220000000     5.984000000
H     2.430000000     2.868000000     5.829000000
O     1.202000000     3.679000000     8.656000000
H     1.736000000     3.377000000     7.922000000
H     0.667000000     2.920000000     8.890000000
