215
-1431.08422
C    -3.359000000    -1.974000000     3.170000000
H    -3.197000000    -2.575000000     2.280000000
C    -3.787000000    -0.621000000     3.115000000
C    -3.683000000     0.160000000     4.257000000
H    -3.818000000     1.239000000     4.253000000
C    -4.047000000     0.026000000     1.814000000
O    -4.813000000    -0.837000000     0.944000000
H    -3.045000000     0.294000000     1.447000000
O    -4.742000000     1.290000000     1.856000000
C    -4.260000000     2.196000000     0.956000000
C    -3.289000000     3.029000000     1.542000000
H    -3.054000000     2.966000000     2.601000000
C    -2.508000000     3.866000000     0.746000000
O    -1.446000000     4.473000000     1.300000000
C    -2.914000000     3.977000000    -0.575000000
C    -2.096000000     4.938000000    -1.454000000
H    -2.689000000     5.179000000    -2.339000000
C    -0.848000000     4.275000000    -1.937000000
C    -0.898000000     3.694000000    -3.210000000
H    -1.814000000     3.656000000    -3.795000000
H    -1.812000000     5.785000000    -0.826000000
C    -3.801000000     3.100000000    -1.160000000
H    -3.912000000     2.896000000    -2.222000000
C    -4.511000000     2.185000000    -0.395000000
C    -5.383000000     1.134000000    -0.994000000
H    -5.952000000     1.579000000    -1.813000000
H    -6.169000000     0.981000000    -0.251000000
C    -4.628000000    -0.098000000    -1.343000000
C    -4.092000000    -0.241000000    -2.674000000
H    -4.295000000     0.508000000    -3.435000000
C    -4.338000000    -1.017000000    -0.351000000
C    -3.556000000    -2.099000000    -0.637000000
H    -3.295000000    -2.789000000     0.161000000
C    -3.172000000    -2.389000000    -2.008000000
O    -2.448000000    -3.476000000    -2.317000000
C    -1.083000000    -3.255000000    -2.296000000
C    -0.284000000    -4.383000000    -1.750000000
C     0.915000000    -4.904000000    -2.337000000
H     1.377000000    -4.446000000    -3.207000000
C    -0.742000000    -5.013000000    -0.587000000
H    -1.667000000    -4.633000000    -0.161000000
O    -0.543000000    -3.029000000    -3.640000000
H    -0.885000000    -2.373000000    -1.669000000
C    -3.455000000    -1.436000000    -3.055000000
C    -2.914000000    -1.603000000    -4.450000000
H    -3.530000000    -1.224000000    -5.268000000
H    -2.887000000    -2.687000000    -4.582000000
C    -1.537000000    -1.022000000    -4.494000000
C    -1.328000000     0.311000000    -4.863000000
H    -2.118000000     1.014000000    -5.114000000
C    -0.424000000    -1.792000000    -4.111000000
C     0.804000000    -1.318000000    -4.271000000
H     1.658000000    -1.888000000    -3.915000000
C     0.996000000    -0.001000000    -4.485000000
O     2.265000000     0.451000000    -4.433000000
C     2.689000000     1.200000000    -3.262000000
C     3.944000000     0.687000000    -2.682000000
C     4.137000000    -0.695000000    -2.406000000
H     3.333000000    -1.356000000    -2.718000000
C     5.030000000     1.539000000    -2.306000000
H     5.022000000     2.607000000    -2.512000000
O     2.615000000     2.619000000    -3.529000000
H     1.958000000     0.986000000    -2.469000000
C    -0.046000000     0.845000000    -4.846000000
C     0.187000000     2.345000000    -5.138000000
H    -0.682000000     2.694000000    -5.699000000
H     1.075000000     2.448000000    -5.767000000
C     0.234000000     3.151000000    -3.799000000
C     1.448000000     3.269000000    -3.136000000
C     1.503000000     3.899000000    -1.882000000
H     2.438000000     4.051000000    -1.350000000
C     0.397000000     4.468000000    -1.313000000
O     0.539000000     4.924000000     0.016000000
C    -0.076000000     4.114000000     0.999000000
H    -0.156000000     3.113000000     0.552000000
C     0.874000000     3.856000000     2.178000000
C     0.366000000     3.857000000     3.475000000
H    -0.613000000     4.289000000     3.665000000
C     2.230000000     3.487000000     1.969000000
H     2.565000000     3.320000000     0.948000000
C     3.060000000     3.235000000     3.021000000
O     4.422000000     3.019000000     2.922000000
C     2.452000000     3.167000000     4.292000000
H     3.076000000     2.974000000     5.161000000
C     1.129000000     3.432000000     4.544000000
O     0.554000000     3.270000000     5.733000000
C    -0.766000000     3.092000000     6.003000000
C    -1.330000000     1.821000000     5.949000000
H    -0.696000000     0.997000000     5.633000000
C    -1.452000000     4.106000000     6.664000000
H    -0.964000000     5.046000000     6.910000000
C    -2.702000000     3.870000000     7.236000000
H    -3.212000000     4.552000000     7.911000000
C    -3.239000000     2.631000000     7.142000000
H    -4.194000000     2.432000000     7.623000000
C    -2.556000000     1.566000000     6.449000000
O    -2.966000000     0.330000000     6.591000000
C    -3.231000000    -0.452000000     5.437000000
C    -3.084000000    -1.804000000     5.535000000
H    -2.795000000    -2.228000000     6.493000000
C    -3.023000000    -2.548000000     4.357000000
O    -2.593000000    -3.871000000     4.432000000
C    -2.693000000    -4.897000000     3.503000000
C    -1.586000000    -5.140000000     2.718000000
H    -0.710000000    -4.501000000     2.795000000
C    -3.853000000    -5.621000000     3.258000000
H    -4.708000000    -5.376000000     3.882000000
C    -3.967000000    -6.587000000     2.306000000
H    -4.918000000    -7.110000000     2.237000000
C    -2.805000000    -6.958000000     1.535000000
H    -2.857000000    -7.783000000     0.829000000
C    -1.663000000    -6.207000000     1.809000000
O    -0.535000000    -6.615000000     1.102000000
C    -0.025000000    -6.112000000    -0.028000000
C     1.208000000    -6.518000000    -0.541000000
H     1.777000000    -7.265000000     0.005000000
C     1.561000000    -6.001000000    -1.752000000
O     2.763000000    -6.433000000    -2.245000000
C     3.717000000    -5.510000000    -2.600000000
C     4.093000000    -4.558000000    -1.708000000
H     3.613000000    -4.507000000    -0.734000000
C     4.238000000    -5.512000000    -3.908000000
H     3.814000000    -6.297000000    -4.529000000
C     5.238000000    -4.645000000    -4.322000000
H     5.662000000    -4.763000000    -5.316000000
C     5.649000000    -3.678000000    -3.364000000
H     6.351000000    -2.889000000    -3.619000000
C     5.012000000    -3.524000000    -2.064000000
O     5.359000000    -2.514000000    -1.235000000
C     5.219000000    -1.218000000    -1.660000000
C     6.146000000    -0.327000000    -1.203000000
H     6.983000000    -0.636000000    -0.581000000
C     6.125000000     1.020000000    -1.654000000
O     7.022000000     1.925000000    -1.064000000
C     6.434000000     2.844000000    -0.247000000
C     6.683000000     4.238000000    -0.506000000
H     7.223000000     4.527000000    -1.404000000
C     6.007000000     5.135000000     0.292000000
H     5.947000000     6.187000000     0.027000000
C     5.263000000     4.712000000     1.351000000
H     4.752000000     5.483000000     1.922000000
C     5.109000000     3.375000000     1.741000000
C     5.704000000     2.441000000     0.924000000
H     5.737000000     1.362000000     1.053000000
C     3.324000000    -1.163000000     1.160000000
H     4.357000000    -0.827000000     1.188000000
C     2.233000000    -0.351000000     0.736000000
H     2.386000000     0.700000000     0.505000000
C     0.976000000    -0.887000000     0.588000000
H     0.178000000    -0.348000000     0.200000000
C     0.748000000    -2.214000000     0.935000000
H    -0.227000000    -2.691000000     0.891000000
C     1.778000000    -2.976000000     1.393000000
H     1.666000000    -4.021000000     1.670000000
C     3.073000000    -2.478000000     1.518000000
C     4.146000000    -3.343000000     2.022000000
O     4.124000000    -4.523000000     2.272000000
O     5.002000000    -2.767000000     2.685000000
O     6.205000000    -8.354000000     0.228000000
H     5.966000000    -8.205000000    -0.686000000
H     5.482000000    -7.977000000     0.729000000
O     6.935000000    -3.614000000     4.999000000
H     6.046000000    -3.260000000     5.024000000
H     6.882000000    -4.354000000     4.394000000
O     2.254000000    -0.012000000     5.929000000
H     2.085000000     0.624000000     6.624000000
H     3.195000000    -0.182000000     5.984000000
O     9.256000000    -2.151000000     4.615000000
H     8.737000000    -1.492000000     4.154000000
H     8.609000000    -2.764000000     4.963000000
O     1.115000000    -1.852000000     4.478000000
H     1.519000000    -1.295000000     5.142000000
H     1.085000000    -1.305000000     3.692000000
O     0.592000000    -4.517000000     5.655000000
H     1.327000000    -4.222000000     6.192000000
H     0.597000000    -3.931000000     4.898000000
O     4.318000000    -2.170000000     5.073000000
H     4.667000000    -2.272000000     4.187000000
H     3.483000000    -2.638000000     5.056000000
O     7.923000000    -2.722000000     0.143000000
H     7.146000000    -2.718000000    -0.417000000
H     8.545000000    -2.149000000    -0.306000000
O     5.439000000     0.105000000     5.942000000
H     5.261000000    -0.832000000     5.862000000
H     6.085000000     0.286000000     5.260000000
O     8.645000000    -6.695000000     1.154000000
H     7.861000000    -7.163000000     0.867000000
H     8.718000000    -5.956000000     0.550000000
O     6.041000000    -7.431000000     4.897000000
H     6.089000000    -6.748000000     4.228000000
H     6.785000000    -7.256000000     5.473000000
O     7.483000000     0.423000000     4.124000000
H     7.374000000    -0.124000000     3.346000000
H     7.241000000     1.303000000     3.834000000
O     1.712000000    -6.997000000     5.406000000
H     2.096000000    -6.558000000     6.165000000
H     0.939000000    -6.476000000     5.193000000
O     6.401000000    -5.738000000     2.969000000
H     5.623000000    -5.368000000     2.552000000
H     7.083000000    -5.676000000     2.300000000
O     6.952000000    -1.233000000     2.186000000
H     7.366000000    -1.844000000     1.578000000
H     6.221000000    -1.725000000     2.560000000
O     9.055000000     0.422000000     1.166000000
H     8.387000000    -0.225000000     1.394000000
H     9.547000000     0.016000000     0.453000000
O     3.954000000    -5.103000000     4.823000000
H     3.860000000    -5.046000000     3.872000000
H     3.432000000    -5.867000000     5.070000000
O     5.648000000    -4.774000000     7.005000000
H     5.121000000    -4.819000000     6.207000000
H     6.514000000    -4.498000000     6.705000000
O     3.956000000    -7.226000000     1.645000000
H     3.572000000    -7.699000000     2.384000000
H     3.743000000    -6.307000000     1.813000000
