215
-1467.18662
C    -4.312000000    -3.951000000     1.162000000
H    -4.964000000    -3.984000000     0.292000000
C    -3.947000000    -2.741000000     1.736000000
C    -3.002000000    -2.696000000     2.743000000
H    -2.663000000    -1.734000000     3.117000000
C    -4.196000000    -1.377000000     1.038000000
O    -4.842000000    -1.569000000    -0.273000000
H    -3.161000000    -1.048000000     0.863000000
O    -4.887000000    -0.374000000     1.815000000
C    -4.468000000     0.936000000     1.703000000
C    -3.426000000     1.332000000     2.623000000
H    -3.030000000     0.649000000     3.371000000
C    -2.895000000     2.590000000     2.426000000
O    -1.872000000     2.832000000     3.309000000
C    -3.233000000     3.430000000     1.308000000
C    -2.491000000     4.691000000     1.040000000
H    -3.073000000     5.366000000     0.409000000
C    -1.102000000     4.672000000     0.433000000
C    -0.933000000     4.906000000    -0.984000000
H    -1.824000000     4.884000000    -1.606000000
H    -2.496000000     5.247000000     1.980000000
C    -4.219000000     2.973000000     0.431000000
H    -4.366000000     3.518000000    -0.498000000
C    -4.812000000     1.771000000     0.598000000
C    -5.595000000     1.227000000    -0.594000000
H    -6.069000000     2.035000000    -1.156000000
H    -6.433000000     0.638000000    -0.215000000
C    -4.706000000     0.498000000    -1.488000000
C    -4.085000000     1.173000000    -2.564000000
H    -4.236000000     2.245000000    -2.656000000
C    -4.381000000    -0.838000000    -1.303000000
C    -3.636000000    -1.560000000    -2.215000000
H    -3.490000000    -2.624000000    -2.045000000
C    -3.013000000    -0.902000000    -3.275000000
O    -2.196000000    -1.641000000    -4.092000000
C    -0.802000000    -1.496000000    -3.882000000
C    -0.050000000    -2.767000000    -3.785000000
C     1.248000000    -2.849000000    -4.283000000
H     1.769000000    -2.020000000    -4.755000000
C    -0.545000000    -3.882000000    -3.120000000
H    -1.581000000    -3.882000000    -2.791000000
O    -0.183000000    -0.564000000    -4.793000000
H    -0.648000000    -1.034000000    -2.896000000
C    -3.248000000     0.475000000    -3.434000000
C    -2.591000000     1.127000000    -4.680000000
H    -3.043000000     2.060000000    -5.023000000
H    -2.536000000     0.453000000    -5.538000000
C    -1.166000000     1.573000000    -4.340000000
C    -0.948000000     2.890000000    -4.031000000
H    -1.798000000     3.569000000    -4.043000000
C    -0.043000000     0.696000000    -4.445000000
C     1.224000000     1.188000000    -4.108000000
H     2.104000000     0.549000000    -4.114000000
C     1.372000000     2.493000000    -3.672000000
O     2.599000000     2.875000000    -3.130000000
C     2.706000000     2.867000000    -1.672000000
C     3.962000000     2.150000000    -1.205000000
C     4.281000000     0.886000000    -1.593000000
H     3.692000000     0.461000000    -2.402000000
C     4.836000000     2.710000000    -0.268000000
H     4.649000000     3.736000000     0.038000000
O     2.649000000     4.217000000    -1.246000000
H     1.852000000     2.331000000    -1.234000000
C     0.303000000     3.366000000    -3.676000000
C     0.360000000     4.772000000    -3.112000000
H    -0.576000000     5.210000000    -3.467000000
H     1.206000000     5.391000000    -3.418000000
C     0.299000000     4.739000000    -1.570000000
C     1.379000000     4.540000000    -0.771000000
C     1.238000000     4.490000000     0.634000000
H     2.084000000     4.291000000     1.286000000
C     0.025000000     4.436000000     1.186000000
O    -0.002000000     4.244000000     2.591000000
C    -0.459000000     2.863000000     2.997000000
H    -0.316000000     2.128000000     2.191000000
C     0.393000000     2.450000000     4.210000000
C    -0.015000000     1.334000000     5.026000000
H    -0.990000000     0.869000000     4.908000000
C     1.691000000     2.932000000     4.322000000
H     2.092000000     3.663000000     3.624000000
C     2.580000000     2.352000000     5.282000000
O     3.872000000     2.729000000     5.390000000
C     2.167000000     1.294000000     6.091000000
H     2.853000000     0.982000000     6.874000000
C     0.870000000     0.750000000     5.960000000
O     0.542000000    -0.335000000     6.767000000
C    -0.462000000    -1.126000000     6.424000000
C    -0.339000000    -2.028000000     5.388000000
H     0.584000000    -2.150000000     4.828000000
C    -1.582000000    -1.167000000     7.218000000
H    -1.755000000    -0.499000000     8.058000000
C    -2.683000000    -2.027000000     6.957000000
H    -3.562000000    -1.983000000     7.595000000
C    -2.595000000    -2.875000000     5.873000000
H    -3.434000000    -3.501000000     5.581000000
C    -1.443000000    -2.871000000     5.062000000
O    -1.405000000    -3.772000000     4.053000000
C    -2.408000000    -3.852000000     3.156000000
C    -2.727000000    -5.065000000     2.511000000
H    -2.129000000    -5.962000000     2.654000000
C    -3.684000000    -5.096000000     1.513000000
O    -3.915000000    -6.272000000     0.831000000
C    -3.403000000    -6.403000000    -0.417000000
C    -1.987000000    -6.492000000    -0.665000000
H    -1.157000000    -6.392000000     0.030000000
C    -4.366000000    -6.602000000    -1.429000000
H    -5.408000000    -6.751000000    -1.156000000
C    -3.927000000    -6.679000000    -2.731000000
H    -4.648000000    -6.927000000    -3.506000000
C    -2.543000000    -6.629000000    -3.014000000
H    -2.262000000    -6.752000000    -4.056000000
C    -1.602000000    -6.494000000    -1.995000000
O    -0.287000000    -6.218000000    -2.397000000
C     0.190000000    -5.092000000    -2.979000000
C     1.439000000    -5.178000000    -3.561000000
H     1.907000000    -6.146000000    -3.724000000
C     2.009000000    -4.024000000    -4.112000000
O     3.305000000    -4.088000000    -4.581000000
C     4.303000000    -3.159000000    -4.267000000
C     4.423000000    -2.663000000    -2.916000000
H     3.819000000    -3.184000000    -2.178000000
C     5.160000000    -2.676000000    -5.303000000
H     5.155000000    -3.067000000    -6.318000000
C     5.850000000    -1.483000000    -5.033000000
H     6.399000000    -0.994000000    -5.834000000
C     5.929000000    -0.922000000    -3.733000000
H     6.701000000    -0.184000000    -3.531000000
C     5.242000000    -1.533000000    -2.715000000
O     5.371000000    -1.216000000    -1.405000000
C     5.174000000     0.077000000    -0.962000000
C     6.032000000     0.646000000    -0.039000000
H     6.740000000    -0.026000000     0.439000000
C     5.814000000     1.985000000     0.356000000
O     6.511000000     2.482000000     1.437000000
C     5.902000000     3.257000000     2.383000000
C     6.170000000     4.620000000     2.446000000
H     6.932000000     4.967000000     1.752000000
C     5.677000000     5.321000000     3.503000000
H     5.823000000     6.398000000     3.507000000
C     4.875000000     4.712000000     4.461000000
H     4.562000000     5.299000000     5.321000000
C     4.521000000     3.362000000     4.404000000
C     5.042000000     2.638000000     3.317000000
H     4.845000000     1.579000000     3.170000000
C     2.180000000    -1.005000000     1.430000000
H     3.104000000    -0.547000000     1.772000000
C     1.202000000    -0.160000000     0.811000000
H     1.387000000     0.909000000     0.743000000
C     0.011000000    -0.754000000     0.276000000
H    -0.753000000    -0.121000000    -0.202000000
C    -0.183000000    -2.106000000     0.331000000
H    -1.101000000    -2.600000000     0.026000000
C     0.750000000    -2.891000000     0.983000000
H     0.606000000    -3.967000000     1.038000000
C     1.950000000    -2.382000000     1.493000000
C     2.956000000    -3.409000000     1.957000000
O     2.557000000    -4.550000000     2.100000000
O     4.130000000    -3.051000000     2.089000000
O     3.172000000    -2.108000000     6.247000000
H     3.735000000    -2.470000000     6.931000000
H     2.352000000    -1.902000000     6.695000000
O     1.969000000    -7.784000000     0.569000000
H     2.504000000    -7.066000000     0.230000000
H     2.526000000    -8.210000000     1.220000000
O     6.716000000     0.150000000     4.271000000
H     5.809000000    -0.151000000     4.217000000
H     6.703000000     0.830000000     4.945000000
O     7.295000000    -5.340000000     5.029000000
H     7.979000000    -5.032000000     4.434000000
H     6.581000000    -4.712000000     4.917000000
O     5.109000000    -3.632000000     4.662000000
H     4.707000000    -2.895000000     5.123000000
H     4.946000000    -3.452000000     3.736000000
O     3.656000000    -9.027000000     2.936000000
H     3.033000000    -9.394000000     3.563000000
H     3.845000000    -8.151000000     3.271000000
O     0.316000000    -6.018000000     6.334000000
H     0.175000000    -6.463000000     7.170000000
H     1.268000000    -5.960000000     6.252000000
O     0.805000000    -6.248000000     3.459000000
H     1.288000000    -5.609000000     2.935000000
H     0.828000000    -5.896000000     4.348000000
O     0.189000000    -8.824000000     2.701000000
H     0.216000000    -7.949000000     3.090000000
H     0.648000000    -8.728000000     1.866000000
O     8.260000000    -0.856000000     2.026000000
H     8.067000000    -1.713000000     1.646000000
H     7.494000000    -0.654000000     2.563000000
O     4.301000000    -0.715000000     3.964000000
H     3.713000000    -0.847000000     4.707000000
H     4.152000000    -1.476000000     3.402000000
O     4.106000000    -6.355000000     3.794000000
H     4.857000000    -5.862000000     4.122000000
H     3.603000000    -5.718000000     3.287000000
O     2.964000000    -6.674000000     6.230000000
H     3.335000000    -6.859000000     5.368000000
H     3.718000000    -6.436000000     6.770000000
O     2.803000000    -5.495000000    -0.420000000
H     2.178000000    -4.896000000    -0.829000000
H     2.838000000    -5.216000000     0.495000000
O     5.574000000    -5.453000000     7.324000000
H     5.346000000    -4.524000000     7.361000000
H     6.272000000    -5.502000000     6.671000000
O     4.707000000    -9.706000000     0.492000000
H     4.393000000    -9.448000000     1.358000000
H     5.637000000    -9.480000000     0.497000000
O     8.939000000    -4.392000000    -0.044000000
H     8.010000000    -4.288000000     0.163000000
H     9.111000000    -3.729000000    -0.712000000
O     6.431000000    -2.674000000     0.812000000
H     6.068000000    -2.335000000    -0.006000000
H     5.667000000    -2.956000000     1.315000000
O     4.207000000    -6.989000000    -2.877000000
H     3.912000000    -7.871000000    -2.651000000
H     4.053000000    -6.475000000    -2.084000000
