215
-1437.16720
C    -3.959000000     2.406000000     1.000000000
H    -4.155000000     2.407000000    -0.069000000
C    -2.895000000     3.199000000     1.543000000
C    -2.751000000     3.214000000     2.952000000
H    -1.940000000     3.696000000     3.491000000
C    -1.777000000     3.740000000     0.659000000
O    -2.339000000     4.334000000    -0.528000000
H    -1.154000000     2.914000000     0.285000000
O    -0.962000000     4.630000000     1.348000000
C     0.346000000     4.420000000     1.157000000
C     0.998000000     3.736000000     2.195000000
H     0.389000000     3.595000000     3.085000000
C     2.387000000     3.571000000     2.074000000
O     2.974000000     2.847000000     3.040000000
C     3.077000000     3.842000000     0.913000000
C     4.532000000     3.381000000     0.647000000
H     5.076000000     4.031000000    -0.041000000
C     4.525000000     1.959000000     0.109000000
C     4.589000000     1.693000000    -1.253000000
H     4.661000000     2.534000000    -1.937000000
H     5.065000000     3.524000000     1.589000000
C     2.372000000     4.448000000    -0.128000000
H     2.800000000     4.653000000    -1.105000000
C     1.040000000     4.776000000    -0.005000000
C     0.281000000     5.422000000    -1.140000000
H     0.942000000     6.119000000    -1.659000000
H    -0.428000000     6.089000000    -0.646000000
C    -0.467000000     4.433000000    -2.078000000
C     0.201000000     3.781000000    -3.051000000
H     1.254000000     4.026000000    -3.169000000
C    -1.753000000     4.020000000    -1.726000000
C    -2.411000000     3.064000000    -2.511000000
H    -3.417000000     2.805000000    -2.191000000
C    -1.761000000     2.373000000    -3.516000000
O    -2.483000000     1.397000000    -4.238000000
C    -2.066000000     0.009000000    -3.893000000
C    -3.260000000    -0.852000000    -3.794000000
C    -3.069000000    -2.226000000    -4.058000000
H    -2.152000000    -2.634000000    -4.477000000
C    -4.496000000    -0.440000000    -3.253000000
H    -4.773000000     0.606000000    -3.144000000
O    -1.025000000    -0.491000000    -4.845000000
H    -1.541000000    -0.093000000    -2.932000000
C    -0.468000000     2.804000000    -3.827000000
C     0.232000000     2.220000000    -4.994000000
H     0.927000000     2.977000000    -5.364000000
H    -0.516000000     2.166000000    -5.787000000
C     0.955000000     0.983000000    -4.585000000
C     2.319000000     1.085000000    -4.268000000
H     2.865000000     2.007000000    -4.453000000
C     0.353000000    -0.293000000    -4.514000000
C     1.098000000    -1.390000000    -4.159000000
H     0.691000000    -2.397000000    -4.106000000
C     2.455000000    -1.218000000    -3.736000000
O     3.122000000    -2.290000000    -3.216000000
C     3.099000000    -2.254000000    -1.801000000
C     2.628000000    -3.600000000    -1.275000000
C     1.486000000    -4.241000000    -1.784000000
H     0.959000000    -3.808000000    -2.630000000
C     3.247000000    -4.108000000    -0.108000000
H     4.099000000    -3.522000000     0.227000000
O     4.414000000    -1.956000000    -1.368000000
H     2.363000000    -1.492000000    -1.505000000
C     3.088000000     0.054000000    -3.815000000
C     4.555000000     0.280000000    -3.387000000
H     4.913000000     1.173000000    -3.903000000
H     5.215000000    -0.535000000    -3.691000000
C     4.547000000     0.392000000    -1.824000000
C     4.493000000    -0.676000000    -0.910000000
C     4.540000000    -0.429000000     0.457000000
H     4.581000000    -1.289000000     1.120000000
C     4.479000000     0.881000000     0.935000000
O     4.461000000     1.092000000     2.290000000
C     3.140000000     1.394000000     2.809000000
H     2.395000000     1.086000000     2.061000000
C     2.769000000     0.581000000     4.063000000
C     1.828000000     1.038000000     4.990000000
H     1.437000000     2.049000000     4.921000000
C     2.996000000    -0.802000000     4.050000000
H     3.575000000    -1.216000000     3.228000000
C     2.475000000    -1.579000000     5.053000000
O     2.750000000    -2.924000000     5.185000000
C     1.810000000    -1.088000000     6.053000000
H     1.629000000    -1.630000000     6.978000000
C     1.311000000     0.198000000     5.973000000
O     0.592000000     0.761000000     7.030000000
C    -0.259000000     1.756000000     6.824000000
C    -1.288000000     1.644000000     5.883000000
H    -1.385000000     0.721000000     5.317000000
C    -0.153000000     2.990000000     7.449000000
H     0.662000000     3.202000000     8.137000000
C    -1.109000000     4.010000000     7.360000000
H    -1.152000000     4.962000000     7.881000000
C    -2.172000000     3.768000000     6.485000000
H    -2.973000000     4.489000000     6.343000000
C    -2.245000000     2.606000000     5.762000000
O    -3.446000000     2.350000000     5.121000000
C    -3.626000000     2.441000000     3.755000000
C    -4.702000000     1.695000000     3.200000000
H    -5.376000000     1.133000000     3.841000000
C    -4.903000000     1.821000000     1.808000000
O    -6.024000000     1.141000000     1.382000000
C    -6.523000000     1.365000000     0.163000000
C    -6.429000000     0.247000000    -0.613000000
H    -5.904000000    -0.598000000    -0.177000000
C    -6.875000000     2.549000000    -0.381000000
H    -6.786000000     3.468000000     0.193000000
C    -7.323000000     2.569000000    -1.766000000
H    -7.704000000     3.477000000    -2.225000000
C    -7.384000000     1.370000000    -2.489000000
H    -7.752000000     1.442000000    -3.510000000
C    -6.882000000     0.232000000    -1.921000000
O    -6.772000000    -0.897000000    -2.754000000
C    -5.522000000    -1.327000000    -3.086000000
C    -5.266000000    -2.647000000    -3.260000000
H    -6.095000000    -3.336000000    -3.117000000
C    -4.034000000    -3.099000000    -3.779000000
O    -3.867000000    -4.397000000    -4.005000000
C    -2.750000000    -5.151000000    -4.060000000
C    -1.831000000    -5.014000000    -2.986000000
H    -1.965000000    -4.288000000    -2.188000000
C    -2.576000000    -6.176000000    -4.968000000
H    -3.342000000    -6.346000000    -5.720000000
C    -1.550000000    -7.059000000    -4.895000000
H    -1.665000000    -7.930000000    -5.535000000
C    -0.671000000    -6.978000000    -3.820000000
H    -0.007000000    -7.816000000    -3.624000000
C    -0.806000000    -5.950000000    -2.891000000
O    -0.113000000    -6.092000000    -1.631000000
C     1.029000000    -5.455000000    -1.224000000
C     1.677000000    -5.892000000    -0.062000000
H     1.332000000    -6.838000000     0.348000000
C     2.804000000    -5.274000000     0.460000000
O     3.582000000    -5.960000000     1.447000000
C     4.085000000    -5.245000000     2.483000000
C     5.407000000    -5.251000000     2.818000000
H     6.086000000    -5.772000000     2.147000000
C     5.892000000    -4.406000000     3.830000000
H     6.924000000    -4.280000000     4.149000000
C     4.977000000    -3.666000000     4.620000000
H     5.441000000    -3.023000000     5.363000000
C     3.623000000    -3.700000000     4.416000000
C     3.198000000    -4.557000000     3.375000000
H     2.132000000    -4.507000000     3.166000000
C    -2.209000000    -1.724000000    -0.360000000
H    -2.574000000    -2.410000000    -1.120000000
C    -0.956000000    -1.201000000    -0.619000000
H    -0.399000000    -1.465000000    -1.515000000
C    -0.374000000    -0.230000000     0.202000000
H     0.610000000     0.230000000    -0.018000000
C    -1.104000000     0.041000000     1.389000000
H    -0.629000000     0.822000000     1.976000000
C    -2.286000000    -0.519000000     1.727000000
H    -2.765000000    -0.317000000     2.682000000
C    -2.874000000    -1.410000000     0.857000000
C    -4.174000000    -2.037000000     1.318000000
O    -4.531000000    -1.915000000     2.440000000
O    -4.694000000    -2.808000000     0.515000000
O    -6.645000000    -4.671000000    -0.738000000
H    -6.170000000    -4.141000000    -0.098000000
H    -7.564000000    -4.436000000    -0.609000000
O    -8.691000000    -3.593000000     3.441000000
H    -9.244000000    -4.293000000     3.095000000
H    -8.417000000    -3.099000000     2.668000000
O    -9.356000000     0.468000000     3.568000000
H    -9.599000000    -0.250000000     4.152000000
H    -9.296000000     0.063000000     2.703000000
O    -5.460000000    -4.374000000     3.082000000
H    -6.369000000    -4.113000000     3.225000000
H    -5.036000000    -3.588000000     2.736000000
O    -0.823000000    -5.521000000     2.013000000
H    -1.225000000    -5.314000000     1.169000000
H    -1.304000000    -6.287000000     2.326000000
O    -9.419000000    -2.105000000    -2.434000000
H    -9.792000000    -1.404000000    -1.901000000
H    -8.474000000    -1.955000000    -2.400000000
O    -3.987000000     0.124000000     6.576000000
H    -3.790000000    -0.310000000     5.745000000
H    -4.218000000     1.020000000     6.329000000
O    -1.637000000    -2.174000000     7.157000000
H    -0.999000000    -2.561000000     6.558000000
H    -2.278000000    -1.753000000     6.584000000
O    -3.305000000    -1.816000000     4.807000000
H    -3.827000000    -1.805000000     4.004000000
H    -3.278000000    -2.738000000     5.062000000
O    -3.603000000    -5.225000000    -0.276000000
H    -4.069000000    -4.430000000    -0.017000000
H    -4.048000000    -5.514000000    -1.073000000
O    -0.094000000    -3.444000000     5.265000000
H    -0.134000000    -3.431000000     4.309000000
H     0.828000000    -3.288000000     5.469000000
O     0.099000000    -2.885000000     2.506000000
H    -0.367000000    -3.566000000     2.022000000
H    -0.236000000    -2.063000000     2.147000000
O    -5.745000000    -6.940000000     2.386000000
H    -5.615000000    -5.993000000     2.427000000
H    -4.862000000    -7.299000000     2.299000000
O    -3.535000000    -4.397000000     5.184000000
H    -3.906000000    -4.668000000     4.344000000
H    -2.791000000    -4.984000000     5.318000000
O    -6.509000000    -7.637000000    -0.978000000
H    -5.952000000    -8.282000000    -0.542000000
H    -6.216000000    -6.794000000    -0.630000000
O    -7.790000000    -1.729000000     6.550000000
H    -7.293000000    -1.185000000     5.939000000
H    -8.706000000    -1.539000000     6.349000000
O    -6.567000000    -1.189000000     4.104000000
H    -6.052000000    -1.380000000     3.320000000
H    -7.089000000    -0.422000000     3.867000000
O    -9.441000000    -0.387000000     0.953000000
H   -10.200000000    -0.968000000     0.911000000
H    -9.520000000     0.168000000     0.177000000
O    -7.335000000    -2.486000000     1.236000000
H    -6.441000000    -2.320000000     0.938000000
H    -7.800000000    -1.666000000     1.068000000
