215
-1451.73756
C    -4.584000000     2.924000000     1.599000000
H    -4.817000000     2.911000000     0.537000000
C    -3.252000000     3.284000000     1.974000000
C    -2.904000000     3.186000000     3.368000000
H    -1.881000000     3.482000000     3.585000000
C    -2.197000000     3.621000000     0.924000000
O    -2.828000000     4.116000000    -0.306000000
H    -1.686000000     2.681000000     0.666000000
O    -1.212000000     4.658000000     1.390000000
C     0.087000000     4.472000000     1.080000000
C     0.899000000     3.851000000     1.989000000
H     0.529000000     3.471000000     2.937000000
C     2.251000000     3.632000000     1.638000000
O     2.946000000     2.948000000     2.561000000
C     2.741000000     3.984000000     0.361000000
C     4.144000000     3.730000000    -0.086000000
H     4.492000000     4.448000000    -0.832000000
C     4.320000000     2.257000000    -0.549000000
C     4.446000000     1.988000000    -1.986000000
H     4.333000000     2.824000000    -2.671000000
H     4.835000000     3.930000000     0.736000000
C     1.894000000     4.639000000    -0.596000000
H     2.238000000     4.958000000    -1.576000000
C     0.558000000     4.860000000    -0.175000000
C    -0.337000000     5.405000000    -1.250000000
H     0.218000000     6.114000000    -1.869000000
H    -1.158000000     5.904000000    -0.730000000
C    -0.994000000     4.239000000    -1.959000000
C    -0.489000000     3.765000000    -3.201000000
H     0.449000000     4.220000000    -3.508000000
C    -2.111000000     3.615000000    -1.404000000
C    -2.776000000     2.692000000    -2.192000000
H    -3.663000000     2.192000000    -1.811000000
C    -2.151000000     2.124000000    -3.354000000
O    -2.779000000     1.107000000    -3.911000000
C    -2.162000000    -0.149000000    -3.584000000
C    -3.122000000    -1.146000000    -2.977000000
C    -2.917000000    -2.516000000    -3.116000000
H    -1.929000000    -2.880000000    -3.387000000
C    -4.333000000    -0.765000000    -2.435000000
H    -4.824000000     0.201000000    -2.518000000
O    -1.372000000    -0.624000000    -4.637000000
H    -1.518000000     0.004000000    -2.705000000
C    -1.020000000     2.666000000    -3.882000000
C    -0.376000000     2.046000000    -5.104000000
H     0.207000000     2.771000000    -5.675000000
H    -1.136000000     1.765000000    -5.836000000
C     0.575000000     0.866000000    -4.831000000
C     1.934000000     1.071000000    -4.681000000
H     2.352000000     2.067000000    -4.807000000
C     0.014000000    -0.377000000    -4.678000000
C     0.852000000    -1.407000000    -4.316000000
H     0.377000000    -2.373000000    -4.163000000
C     2.213000000    -1.184000000    -4.055000000
O     2.984000000    -2.237000000    -3.524000000
C     3.128000000    -2.175000000    -2.090000000
C     2.846000000    -3.559000000    -1.437000000
C     1.869000000    -4.406000000    -1.921000000
H     1.418000000    -4.265000000    -2.900000000
C     3.471000000    -3.908000000    -0.273000000
H     4.257000000    -3.296000000     0.163000000
O     4.452000000    -1.767000000    -1.787000000
H     2.356000000    -1.468000000    -1.751000000
C     2.837000000     0.046000000    -4.292000000
C     4.309000000     0.333000000    -3.941000000
H     4.665000000     1.109000000    -4.622000000
H     4.880000000    -0.572000000    -4.159000000
C     4.489000000     0.657000000    -2.466000000
C     4.619000000    -0.401000000    -1.547000000
C     4.770000000    -0.092000000    -0.156000000
H     4.866000000    -0.931000000     0.528000000
C     4.526000000     1.167000000     0.349000000
O     4.410000000     1.304000000     1.728000000
C     3.142000000     1.547000000     2.325000000
H     2.431000000     1.193000000     1.564000000
C     2.774000000     0.743000000     3.537000000
C     1.494000000     0.754000000     4.161000000
H     0.783000000     1.454000000     3.729000000
C     3.560000000    -0.415000000     3.791000000
H     4.463000000    -0.687000000     3.251000000
C     3.198000000    -1.325000000     4.796000000
O     3.990000000    -2.409000000     5.144000000
C     2.006000000    -1.168000000     5.517000000
H     1.846000000    -1.785000000     6.398000000
C     1.216000000    -0.096000000     5.258000000
O     0.049000000    -0.064000000     5.962000000
C    -0.447000000     1.199000000     6.242000000
C    -1.738000000     1.411000000     5.901000000
H    -2.253000000     0.649000000     5.323000000
C     0.280000000     2.172000000     6.921000000
H     1.352000000     2.002000000     6.984000000
C    -0.348000000     3.341000000     7.324000000
H     0.194000000     4.179000000     7.753000000
C    -1.686000000     3.552000000     6.896000000
H    -2.218000000     4.469000000     7.133000000
C    -2.372000000     2.619000000     6.152000000
O    -3.624000000     2.868000000     5.671000000
C    -3.904000000     2.875000000     4.322000000
C    -5.210000000     2.598000000     3.894000000
H    -5.900000000     2.133000000     4.594000000
C    -5.526000000     2.470000000     2.526000000
O    -6.678000000     1.923000000     2.171000000
C    -7.010000000     1.507000000     0.894000000
C    -6.580000000     0.263000000     0.394000000
H    -6.104000000    -0.409000000     1.104000000
C    -7.741000000     2.313000000     0.038000000
H    -8.057000000     3.320000000     0.299000000
C    -8.029000000     1.820000000    -1.198000000
H    -8.624000000     2.433000000    -1.870000000
C    -7.581000000     0.604000000    -1.730000000
H    -7.852000000     0.217000000    -2.709000000
C    -6.791000000    -0.178000000    -0.923000000
O    -6.422000000    -1.469000000    -1.278000000
C    -5.194000000    -1.727000000    -1.886000000
C    -4.895000000    -3.061000000    -1.946000000
H    -5.505000000    -3.765000000    -1.385000000
C    -3.780000000    -3.466000000    -2.661000000
O    -3.511000000    -4.778000000    -2.697000000
C    -2.361000000    -5.334000000    -3.161000000
C    -1.255000000    -5.542000000    -2.324000000
H    -1.447000000    -5.520000000    -1.254000000
C    -2.127000000    -5.471000000    -4.513000000
H    -2.875000000    -5.164000000    -5.240000000
C    -0.972000000    -5.956000000    -5.028000000
H    -0.886000000    -6.035000000    -6.108000000
C     0.002000000    -6.478000000    -4.211000000
H     0.955000000    -6.900000000    -4.521000000
C    -0.157000000    -6.243000000    -2.819000000
O     0.883000000    -6.575000000    -2.022000000
C     1.711000000    -5.672000000    -1.406000000
C     2.312000000    -5.993000000    -0.215000000
H     2.057000000    -6.972000000     0.183000000
C     3.224000000    -5.129000000     0.339000000
O     3.915000000    -5.602000000     1.412000000
C     4.598000000    -4.776000000     2.342000000
C     5.948000000    -4.915000000     2.412000000
H     6.463000000    -5.621000000     1.765000000
C     6.661000000    -4.194000000     3.366000000
H     7.734000000    -4.333000000     3.468000000
C     5.995000000    -3.376000000     4.248000000
H     6.468000000    -2.991000000     5.148000000
C     4.616000000    -3.227000000     4.192000000
C     3.917000000    -3.871000000     3.206000000
H     2.843000000    -3.700000000     3.226000000
C    -1.283000000    -2.428000000     0.082000000
H    -1.420000000    -3.413000000    -0.356000000
C    -0.352000000    -1.543000000    -0.539000000
H     0.144000000    -1.980000000    -1.401000000
C    -0.148000000    -0.211000000    -0.080000000
H     0.697000000     0.440000000    -0.382000000
C    -0.941000000     0.253000000     1.019000000
H    -0.775000000     1.192000000     1.541000000
C    -1.956000000    -0.580000000     1.503000000
H    -2.555000000    -0.266000000     2.355000000
C    -2.068000000    -1.886000000     1.053000000
C    -3.192000000    -2.786000000     1.656000000
O    -4.075000000    -2.333000000     2.401000000
O    -3.124000000    -3.987000000     1.527000000
O    -7.199000000    -5.092000000     3.312000000
H    -7.375000000    -4.248000000     2.896000000
H    -6.275000000    -5.049000000     3.558000000
O    -8.332000000    -1.401000000     2.087000000
H    -8.816000000    -0.741000000     1.590000000
H    -8.509000000    -1.189000000     3.003000000
O    -5.904000000    -7.543000000     5.398000000
H    -5.247000000    -7.234000000     4.773000000
H    -6.639000000    -7.825000000     4.853000000
O    -4.499000000    -5.199000000     3.648000000
H    -4.191000000    -6.102000000     3.566000000
H    -4.008000000    -4.717000000     2.983000000
O    -0.882000000    -5.785000000     1.551000000
H    -1.759000000    -5.404000000     1.568000000
H    -0.992000000    -6.622000000     1.100000000
O    -4.638000000    -0.038000000     5.827000000
H    -4.019000000    -0.751000000     5.668000000
H    -5.338000000    -0.182000000     5.190000000
O    -2.898000000    -1.973000000     5.011000000
H    -2.913000000    -2.271000000     4.101000000
H    -2.002000000    -2.141000000     5.303000000
O    -6.035000000    -3.546000000     5.846000000
H    -6.093000000    -2.886000000     5.156000000
H    -5.179000000    -3.953000000     5.717000000
O    -1.581000000    -8.605000000     1.269000000
H    -1.493000000    -8.195000000     2.130000000
H    -1.935000000    -9.476000000     1.454000000
O    -3.953000000    -6.372000000     0.383000000
H    -3.604000000    -5.968000000    -0.412000000
H    -3.854000000    -5.699000000     1.057000000
O    -7.596000000    -5.978000000     0.461000000
H    -6.931000000    -6.667000000     0.457000000
H    -7.127000000    -5.194000000     0.744000000
O    -0.789000000    -3.896000000     5.654000000
H    -0.152000000    -4.608000000     5.711000000
H    -0.693000000    -3.559000000     4.764000000
O    -0.048000000    -3.397000000     2.957000000
H     0.238000000    -4.234000000     2.591000000
H    -0.416000000    -2.923000000     2.211000000
O    -3.907000000    -7.707000000     3.295000000
H    -4.119000000    -7.593000000     2.369000000
H    -3.836000000    -8.655000000     3.409000000
O    -3.342000000    -4.911000000     6.239000000
H    -3.510000000    -5.067000000     5.310000000
H    -2.495000000    -4.465000000     6.257000000
O    -0.936000000    -7.561000000     3.911000000
H    -1.163000000    -7.716000000     4.827000000
H    -0.883000000    -6.608000000     3.835000000
O    -5.738000000    -8.202000000     0.822000000
H    -4.952000000    -7.837000000     0.416000000
H    -6.034000000    -8.875000000     0.209000000
O    -6.043000000    -1.279000000     3.753000000
H    -5.272000000    -1.393000000     3.196000000
H    -6.783000000    -1.481000000     3.180000000
O    -6.192000000    -3.907000000     1.012000000
H    -5.378000000    -3.606000000     1.416000000
H    -6.328000000    -3.311000000     0.275000000
