215
-1449.37926
C    -4.380000000     2.299000000     1.806000000
H    -4.861000000     2.601000000     0.879000000
C    -3.124000000     2.787000000     2.080000000
C    -2.620000000     2.568000000     3.368000000
H    -1.598000000     2.916000000     3.501000000
C    -2.275000000     3.451000000     1.013000000
O    -3.006000000     4.150000000    -0.024000000
H    -1.676000000     2.620000000     0.613000000
O    -1.313000000     4.319000000     1.600000000
C    -0.011000000     4.347000000     1.089000000
C     0.952000000     3.830000000     1.923000000
H     0.632000000     3.422000000     2.878000000
C     2.245000000     3.513000000     1.407000000
O     3.176000000     2.864000000     2.193000000
C     2.583000000     3.955000000     0.143000000
C     4.009000000     3.700000000    -0.336000000
H     4.380000000     4.413000000    -1.076000000
C     4.180000000     2.320000000    -0.963000000
C     3.896000000     2.073000000    -2.282000000
H     3.519000000     2.945000000    -2.810000000
H     4.622000000     3.758000000     0.566000000
C     1.611000000     4.529000000    -0.658000000
H     1.796000000     4.872000000    -1.672000000
C     0.325000000     4.795000000    -0.195000000
C    -0.689000000     5.442000000    -1.093000000
H    -0.151000000     6.068000000    -1.808000000
H    -1.313000000     6.160000000    -0.555000000
C    -1.466000000     4.389000000    -1.832000000
C    -0.962000000     3.852000000    -2.995000000
H    -0.085000000     4.245000000    -3.503000000
C    -2.666000000     3.819000000    -1.303000000
C    -3.339000000     2.817000000    -1.914000000
H    -4.216000000     2.353000000    -1.471000000
C    -2.905000000     2.355000000    -3.109000000
O    -3.466000000     1.200000000    -3.564000000
C    -2.846000000    -0.088000000    -3.139000000
C    -3.877000000    -1.141000000    -2.719000000
C    -3.367000000    -2.459000000    -2.650000000
H    -2.378000000    -2.718000000    -3.020000000
C    -5.164000000    -0.787000000    -2.267000000
H    -5.529000000     0.231000000    -2.379000000
O    -2.013000000    -0.557000000    -4.210000000
H    -2.145000000    -0.040000000    -2.293000000
C    -1.669000000     2.793000000    -3.615000000
C    -1.148000000     2.100000000    -4.860000000
H    -0.693000000     2.743000000    -5.616000000
H    -1.981000000     1.984000000    -5.557000000
C    -0.195000000     0.937000000    -4.723000000
C     1.172000000     1.167000000    -4.745000000
H     1.481000000     2.202000000    -4.859000000
C    -0.676000000    -0.356000000    -4.384000000
C     0.210000000    -1.383000000    -4.022000000
H    -0.227000000    -2.332000000    -3.722000000
C     1.586000000    -1.148000000    -4.091000000
O     2.385000000    -2.153000000    -3.709000000
C     2.805000000    -2.108000000    -2.308000000
C     2.818000000    -3.503000000    -1.729000000
C     1.856000000    -4.435000000    -2.115000000
H     1.156000000    -4.132000000    -2.888000000
C     3.598000000    -3.838000000    -0.596000000
H     4.198000000    -3.045000000    -0.157000000
O     4.166000000    -1.602000000    -2.370000000
H     2.129000000    -1.406000000    -1.799000000
C     2.067000000     0.110000000    -4.379000000
C     3.499000000     0.496000000    -4.228000000
H     3.673000000     1.417000000    -4.788000000
H     4.171000000    -0.280000000    -4.602000000
C     3.876000000     0.780000000    -2.780000000
C     4.329000000    -0.294000000    -1.969000000
C     4.823000000    -0.017000000    -0.755000000
H     5.093000000    -0.773000000    -0.023000000
C     4.647000000     1.235000000    -0.200000000
O     4.661000000     1.268000000     1.196000000
C     3.438000000     1.464000000     1.928000000
H     2.576000000     1.086000000     1.358000000
C     3.579000000     0.693000000     3.215000000
C     2.813000000     1.046000000     4.365000000
H     2.286000000     1.994000000     4.437000000
C     4.321000000    -0.496000000     3.343000000
H     4.934000000    -0.831000000     2.510000000
C     4.403000000    -1.196000000     4.576000000
O     5.310000000    -2.157000000     4.736000000
C     3.542000000    -0.887000000     5.611000000
H     3.609000000    -1.465000000     6.529000000
C     2.787000000     0.296000000     5.541000000
O     2.018000000     0.663000000     6.557000000
C     0.962000000     1.636000000     6.520000000
C    -0.282000000     1.240000000     6.045000000
H    -0.549000000     0.201000000     5.868000000
C     1.197000000     2.963000000     6.818000000
H     2.170000000     3.303000000     7.161000000
C     0.169000000     3.867000000     6.694000000
H     0.284000000     4.889000000     7.044000000
C    -1.106000000     3.425000000     6.294000000
H    -2.045000000     3.972000000     6.269000000
C    -1.328000000     2.075000000     6.000000000
O    -2.566000000     1.659000000     5.598000000
C    -3.285000000     1.938000000     4.388000000
C    -4.510000000     1.415000000     4.105000000
H    -5.101000000     1.005000000     4.921000000
C    -5.031000000     1.564000000     2.796000000
O    -6.337000000     1.162000000     2.632000000
C    -6.943000000     0.933000000     1.495000000
C    -6.794000000    -0.276000000     0.832000000
H    -6.056000000    -1.008000000     1.149000000
C    -7.737000000     1.939000000     1.007000000
H    -7.767000000     2.902000000     1.511000000
C    -8.495000000     1.813000000    -0.135000000
H    -9.095000000     2.597000000    -0.590000000
C    -8.279000000     0.635000000    -0.849000000
H    -8.801000000     0.512000000    -1.795000000
C    -7.439000000    -0.387000000    -0.402000000
O    -7.211000000    -1.538000000    -1.144000000
C    -5.945000000    -1.801000000    -1.690000000
C    -5.434000000    -3.140000000    -1.732000000
H    -6.118000000    -3.890000000    -1.343000000
C    -4.195000000    -3.507000000    -2.227000000
O    -3.800000000    -4.870000000    -2.225000000
C    -2.693000000    -5.332000000    -2.877000000
C    -1.594000000    -5.693000000    -2.104000000
H    -1.647000000    -5.640000000    -1.019000000
C    -2.544000000    -5.349000000    -4.286000000
H    -3.332000000    -5.044000000    -4.970000000
C    -1.341000000    -5.787000000    -4.893000000
H    -1.291000000    -5.964000000    -5.964000000
C    -0.243000000    -6.149000000    -4.102000000
H     0.595000000    -6.705000000    -4.515000000
C    -0.392000000    -6.044000000    -2.701000000
O     0.694000000    -6.478000000    -1.888000000
C     1.777000000    -5.696000000    -1.550000000
C     2.543000000    -5.993000000    -0.420000000
H     2.361000000    -6.851000000     0.223000000
C     3.509000000    -5.115000000     0.003000000
O     4.154000000    -5.379000000     1.234000000
C     5.102000000    -4.603000000     1.863000000
C     6.468000000    -4.684000000     1.533000000
H     6.779000000    -5.434000000     0.810000000
C     7.418000000    -3.936000000     2.265000000
H     8.474000000    -4.045000000     2.031000000
C     6.964000000    -3.093000000     3.256000000
H     7.676000000    -2.446000000     3.762000000
C     5.635000000    -2.961000000     3.640000000
C     4.743000000    -3.786000000     2.924000000
H     3.693000000    -3.864000000     3.193000000
C    -2.294000000    -1.973000000     0.818000000
H    -2.849000000    -2.811000000     0.403000000
C    -1.476000000    -1.220000000     0.003000000
H    -1.520000000    -1.503000000    -1.046000000
C    -0.822000000    -0.127000000     0.541000000
H    -0.377000000     0.567000000    -0.168000000
C    -0.871000000     0.122000000     1.927000000
H    -0.460000000     1.071000000     2.262000000
C    -1.605000000    -0.755000000     2.725000000
H    -1.688000000    -0.556000000     3.790000000
C    -2.388000000    -1.765000000     2.171000000
C    -3.164000000    -2.651000000     3.078000000
O    -2.953000000    -2.534000000     4.257000000
O    -3.793000000    -3.571000000     2.625000000
O    -4.537000000    -4.871000000     4.663000000
H    -4.152000000    -4.334000000     3.970000000
H    -3.887000000    -4.855000000     5.366000000
O    -3.486000000    -5.230000000     8.036000000
H    -3.817000000    -6.096000000     8.275000000
H    -2.774000000    -5.407000000     7.421000000
O    -1.275000000    -7.901000000     0.218000000
H    -0.425000000    -7.655000000    -0.148000000
H    -1.703000000    -7.067000000     0.412000000
O    -1.995000000    -5.259000000     1.735000000
H    -2.588000000    -4.578000000     2.052000000
H    -1.756000000    -5.752000000     2.521000000
O     0.407000000    -3.975000000     1.142000000
H     0.503000000    -4.024000000     0.191000000
H    -0.439000000    -4.385000000     1.319000000
O    -3.832000000     0.542000000     7.986000000
H    -4.045000000    -0.341000000     7.681000000
H    -3.833000000     1.076000000     7.191000000
O    -7.653000000     0.579000000     5.883000000
H    -6.877000000     0.172000000     5.498000000
H    -7.707000000     0.207000000     6.763000000
O    -1.583000000    -4.051000000     5.865000000
H    -2.063000000    -3.537000000     5.216000000
H    -0.798000000    -3.533000000     6.047000000
O    -4.629000000    -2.530000000     7.723000000
H    -4.385000000    -3.456000000     7.720000000
H    -4.970000000    -2.370000000     6.842000000
O    -4.207000000    -6.739000000     0.547000000
H    -4.543000000    -6.960000000     1.416000000
H    -4.413000000    -5.811000000     0.440000000
O    -7.290000000    -5.933000000    -0.694000000
H    -8.107000000    -5.637000000    -0.293000000
H    -6.606000000    -5.447000000    -0.233000000
O    -4.879000000    -7.392000000     3.193000000
H    -5.780000000    -7.611000000     3.431000000
H    -4.640000000    -6.681000000     3.788000000
O     1.018000000    -3.127000000     5.792000000
H     1.835000000    -3.615000000     5.887000000
H     0.977000000    -2.908000000     4.861000000
O     0.800000000    -2.356000000     3.143000000
H     0.627000000    -3.032000000     2.488000000
H     0.315000000    -1.592000000     2.833000000
O    -6.206000000    -7.164000000     5.827000000
H    -5.839000000    -6.284000000     5.741000000
H    -6.690000000    -7.302000000     5.013000000
O    -7.384000000    -3.286000000     3.385000000
H    -7.658000000    -2.374000000     3.286000000
H    -8.090000000    -3.695000000     3.886000000
O    -1.285000000    -6.122000000     4.346000000
H    -1.266000000    -5.341000000     4.899000000
H    -1.451000000    -6.843000000     4.955000000
O    -5.697000000    -1.777000000     4.905000000
H    -4.789000000    -1.804000000     4.605000000
H    -6.125000000    -2.497000000     4.440000000
O    -5.880000000    -4.556000000     1.402000000
H    -5.110000000    -4.105000000     1.750000000
H    -6.616000000    -4.179000000     1.885000000
