215
-1464.91232
C    -4.651000000     2.698000000     1.277000000
H    -4.912000000     2.675000000     0.222000000
C    -3.346000000     3.045000000     1.727000000
C    -3.046000000     3.031000000     3.072000000
H    -2.041000000     3.332000000     3.356000000
C    -2.344000000     3.490000000     0.657000000
O    -3.005000000     3.904000000    -0.489000000
H    -1.713000000     2.658000000     0.313000000
O    -1.574000000     4.585000000     1.177000000
C    -0.235000000     4.499000000     0.862000000
C     0.694000000     4.084000000     1.813000000
H     0.268000000     3.890000000     2.793000000
C     2.057000000     3.987000000     1.571000000
O     2.797000000     3.327000000     2.523000000
C     2.558000000     4.299000000     0.248000000
C     3.966000000     3.994000000    -0.166000000
H     4.272000000     4.734000000    -0.909000000
C     4.158000000     2.544000000    -0.575000000
C     3.973000000     2.156000000    -1.919000000
H     3.527000000     2.817000000    -2.657000000
H     4.555000000     4.174000000     0.736000000
C     1.628000000     4.719000000    -0.746000000
H     1.983000000     4.815000000    -1.769000000
C     0.239000000     4.797000000    -0.454000000
C    -0.727000000     5.281000000    -1.561000000
H    -0.424000000     5.933000000    -2.384000000
H    -1.597000000     5.884000000    -1.294000000
C    -1.254000000     4.035000000    -2.253000000
C    -0.631000000     3.490000000    -3.345000000
H     0.211000000     3.989000000    -3.818000000
C    -2.409000000     3.407000000    -1.718000000
C    -2.982000000     2.354000000    -2.390000000
H    -3.906000000     1.917000000    -2.020000000
C    -2.393000000     1.901000000    -3.578000000
O    -2.883000000     0.699000000    -4.075000000
C    -2.216000000    -0.494000000    -3.695000000
C    -3.198000000    -1.557000000    -3.287000000
C    -2.952000000    -2.923000000    -3.492000000
H    -2.203000000    -3.115000000    -4.256000000
C    -4.360000000    -1.221000000    -2.468000000
H    -4.413000000    -0.225000000    -2.035000000
O    -1.400000000    -0.892000000    -4.769000000
H    -1.546000000    -0.306000000    -2.844000000
C    -1.180000000     2.441000000    -4.028000000
C    -0.460000000     1.828000000    -5.199000000
H     0.093000000     2.513000000    -5.845000000
H    -1.199000000     1.398000000    -5.878000000
C     0.430000000     0.727000000    -4.775000000
C     1.745000000     1.020000000    -4.505000000
H     2.117000000     2.027000000    -4.673000000
C    -0.012000000    -0.606000000    -4.618000000
C     0.806000000    -1.626000000    -4.104000000
H     0.466000000    -2.646000000    -3.946000000
C     2.098000000    -1.312000000    -3.802000000
O     2.822000000    -2.307000000    -3.187000000
C     3.134000000    -2.167000000    -1.784000000
C     2.942000000    -3.477000000    -1.070000000
C     1.783000000    -4.225000000    -1.245000000
H     1.065000000    -3.980000000    -2.023000000
C     3.788000000    -3.837000000    -0.006000000
H     4.687000000    -3.257000000     0.189000000
O     4.393000000    -1.526000000    -1.523000000
H     2.330000000    -1.518000000    -1.405000000
C     2.548000000     0.046000000    -3.983000000
C     4.003000000     0.408000000    -3.769000000
H     4.335000000     1.227000000    -4.411000000
H     4.652000000    -0.461000000    -3.896000000
C     4.124000000     0.822000000    -2.302000000
C     4.378000000    -0.124000000    -1.307000000
C     4.445000000     0.242000000     0.000000000
H     4.638000000    -0.420000000     0.840000000
C     4.465000000     1.564000000     0.388000000
O     4.564000000     1.787000000     1.705000000
C     3.178000000     1.920000000     2.202000000
H     2.434000000     1.543000000     1.485000000
C     2.995000000     1.078000000     3.461000000
C     1.943000000     1.246000000     4.317000000
H     1.340000000     2.130000000     4.124000000
C     3.817000000    -0.042000000     3.656000000
H     4.491000000    -0.396000000     2.880000000
C     3.599000000    -0.870000000     4.723000000
O     4.499000000    -1.853000000     5.033000000
C     2.499000000    -0.690000000     5.587000000
H     2.285000000    -1.423000000     6.360000000
C     1.698000000     0.418000000     5.364000000
O     0.457000000     0.430000000     5.978000000
C    -0.372000000     1.561000000     6.128000000
C    -1.667000000     1.570000000     5.629000000
H    -2.040000000     0.785000000     4.976000000
C     0.093000000     2.696000000     6.899000000
H     1.124000000     2.715000000     7.241000000
C    -0.745000000     3.813000000     7.114000000
H    -0.357000000     4.720000000     7.570000000
C    -2.024000000     3.815000000     6.494000000
H    -2.643000000     4.708000000     6.516000000
C    -2.530000000     2.673000000     5.841000000
O    -3.811000000     2.837000000     5.343000000
C    -4.076000000     2.798000000     4.019000000
C    -5.295000000     2.281000000     3.575000000
H    -6.133000000     1.994000000     4.205000000
C    -5.559000000     2.210000000     2.190000000
O    -6.813000000     1.749000000     1.863000000
C    -6.985000000     1.131000000     0.675000000
C    -6.675000000    -0.238000000     0.500000000
H    -6.378000000    -0.856000000     1.343000000
C    -7.377000000     1.912000000    -0.427000000
H    -7.571000000     2.981000000    -0.380000000
C    -7.380000000     1.328000000    -1.660000000
H    -7.534000000     1.919000000    -2.559000000
C    -7.100000000     0.025000000    -1.887000000
H    -7.005000000    -0.241000000    -2.937000000
C    -6.681000000    -0.742000000    -0.814000000
O    -6.150000000    -1.965000000    -1.019000000
C    -5.191000000    -2.221000000    -2.007000000
C    -4.917000000    -3.539000000    -2.207000000
H    -5.639000000    -4.274000000    -1.862000000
C    -3.817000000    -3.868000000    -2.999000000
O    -3.552000000    -5.226000000    -3.213000000
C    -2.253000000    -5.759000000    -3.166000000
C    -1.591000000    -5.752000000    -1.967000000
H    -2.118000000    -5.321000000    -1.119000000
C    -1.728000000    -6.254000000    -4.296000000
H    -2.280000000    -6.176000000    -5.229000000
C    -0.441000000    -6.797000000    -4.248000000
H    -0.003000000    -7.203000000    -5.156000000
C     0.268000000    -6.740000000    -3.053000000
H     1.219000000    -7.268000000    -3.042000000
C    -0.269000000    -6.190000000    -1.896000000
O     0.361000000    -6.131000000    -0.667000000
C     1.470000000    -5.351000000    -0.439000000
C     2.302000000    -5.650000000     0.608000000
H     2.119000000    -6.558000000     1.175000000
C     3.426000000    -4.870000000     0.859000000
O     4.354000000    -5.339000000     1.729000000
C     5.042000000    -4.404000000     2.480000000
C     6.387000000    -4.544000000     2.564000000
H     6.914000000    -5.168000000     1.847000000
C     7.164000000    -3.749000000     3.412000000
H     8.246000000    -3.852000000     3.432000000
C     6.491000000    -2.788000000     4.158000000
H     7.126000000    -2.069000000     4.670000000
C     5.138000000    -2.679000000     4.165000000
C     4.394000000    -3.518000000     3.333000000
H     3.321000000    -3.347000000     3.297000000
C    -1.471000000    -1.935000000     0.207000000
H    -1.628000000    -2.948000000    -0.155000000
C    -0.520000000    -1.152000000    -0.472000000
H    -0.021000000    -1.507000000    -1.370000000
C    -0.216000000     0.096000000     0.023000000
H     0.551000000     0.733000000    -0.487000000
C    -0.754000000     0.473000000     1.241000000
H    -0.350000000     1.416000000     1.600000000
C    -1.703000000    -0.293000000     1.980000000
H    -1.995000000    -0.005000000     2.987000000
C    -2.134000000    -1.500000000     1.405000000
C    -2.913000000    -2.477000000     2.248000000
O    -3.325000000    -2.132000000     3.336000000
O    -3.147000000    -3.601000000     1.864000000
O    -4.323000000    -2.485000000     7.129000000
H    -3.512000000    -2.365000000     6.636000000
H    -4.918000000    -2.911000000     6.512000000
O    -1.557000000    -8.215000000     1.093000000
H    -0.870000000    -7.633000000     0.769000000
H    -1.984000000    -8.545000000     0.303000000
O    -2.806000000    -6.112000000     2.662000000
H    -3.094000000    -6.522000000     1.847000000
H    -3.032000000    -5.187000000     2.557000000
O     0.770000000    -6.661000000     5.128000000
H     0.580000000    -7.591000000     5.249000000
H    -0.033000000    -6.215000000     5.399000000
O     1.052000000    -2.389000000     1.950000000
H     0.356000000    -1.849000000     1.575000000
H     1.299000000    -2.987000000     1.244000000
O    -7.178000000    -3.063000000     3.162000000
H    -7.358000000    -2.232000000     3.603000000
H    -7.769000000    -3.067000000     2.409000000
O    -7.374000000    -0.743000000     4.686000000
H    -7.911000000    -0.924000000     5.457000000
H    -7.784000000     0.022000000     4.282000000
O    -1.824000000    -2.408000000     5.685000000
H    -2.191000000    -2.025000000     4.887000000
H    -0.946000000    -2.691000000     5.432000000
O    -4.465000000    -0.354000000     4.966000000
H    -4.155000000    -0.998000000     4.330000000
H    -5.334000000    -0.106000000     4.653000000
O    -0.768000000    -2.357000000     8.101000000
H     0.090000000    -2.730000000     7.897000000
H    -1.143000000    -2.140000000     7.247000000
O    -6.126000000    -6.786000000    -0.262000000
H    -6.802000000    -6.701000000    -0.935000000
H    -5.917000000    -5.885000000    -0.018000000
O    -8.860000000    -3.135000000     0.936000000
H    -8.161000000    -3.573000000     0.451000000
H    -9.516000000    -3.818000000     1.079000000
O    -4.728000000    -6.967000000     4.496000000
H    -4.351000000    -6.113000000     4.285000000
H    -3.973000000    -7.550000000     4.576000000
O     0.605000000    -3.484000000     4.742000000
H     0.671000000    -4.417000000     4.538000000
H     0.755000000    -3.044000000     3.905000000
O    -6.452000000    -5.016000000     6.977000000
H    -5.939000000    -5.056000000     6.170000000
H    -5.834000000    -5.259000000     7.666000000
O    -1.660000000    -5.581000000     5.182000000
H    -1.858000000    -5.936000000     4.316000000
H    -2.242000000    -4.826000000     5.270000000
O    -6.907000000    -7.254000000     2.339000000
H    -6.325000000    -7.363000000     3.091000000
H    -6.424000000    -6.681000000     1.743000000
O    -4.963000000    -3.701000000     4.574000000
H    -5.809000000    -3.720000000     4.127000000
H    -4.397000000    -3.190000000     3.996000000
O    -5.679000000    -4.446000000     1.241000000
H    -4.795000000    -4.185000000     0.981000000
H    -5.963000000    -3.759000000     1.844000000
