215
-1428.71185
C    -3.360000000     2.919000000     3.100000000
H    -3.717000000     3.537000000     2.280000000
C    -1.953000000     2.891000000     3.295000000
C    -1.548000000     2.368000000     4.514000000
H    -0.478000000     2.435000000     4.696000000
C    -0.917000000     3.381000000     2.316000000
O    -1.547000000     4.360000000     1.557000000
H    -0.586000000     2.490000000     1.763000000
O     0.191000000     3.948000000     2.985000000
C     1.441000000     3.603000000     2.368000000
C     2.199000000     2.600000000     2.885000000
H     1.814000000     1.936000000     3.655000000
C     3.452000000     2.251000000     2.396000000
O     4.010000000     1.092000000     2.792000000
C     3.908000000     2.899000000     1.203000000
C     5.145000000     2.420000000     0.466000000
H     5.613000000     3.254000000    -0.060000000
C     4.848000000     1.338000000    -0.551000000
C     4.368000000     1.722000000    -1.847000000
H     4.341000000     2.795000000    -2.018000000
H     5.897000000     2.141000000     1.208000000
C     3.085000000     3.893000000     0.648000000
H     3.423000000     4.485000000    -0.198000000
C     1.856000000     4.252000000     1.217000000
C     1.009000000     5.445000000     0.603000000
H     1.775000000     5.968000000     0.025000000
H     0.571000000     6.076000000     1.379000000
C    -0.107000000     4.892000000    -0.310000000
C     0.118000000     4.759000000    -1.678000000
H     1.038000000     5.174000000    -2.082000000
C    -1.279000000     4.351000000     0.238000000
C    -2.302000000     3.899000000    -0.662000000
H    -3.257000000     3.574000000    -0.255000000
C    -2.004000000     3.737000000    -2.008000000
O    -2.881000000     3.065000000    -2.736000000
C    -2.594000000     1.680000000    -2.911000000
C    -3.785000000     0.737000000    -2.587000000
C    -3.884000000    -0.447000000    -3.239000000
H    -3.313000000    -0.534000000    -4.161000000
C    -4.679000000     1.001000000    -1.579000000
H    -4.593000000     1.964000000    -1.083000000
O    -2.149000000     1.476000000    -4.278000000
H    -1.787000000     1.470000000    -2.194000000
C    -0.807000000     4.144000000    -2.520000000
C    -0.486000000     3.873000000    -4.004000000
H     0.319000000     4.564000000    -4.265000000
H    -1.303000000     3.991000000    -4.719000000
C     0.087000000     2.455000000    -4.215000000
C     1.427000000     2.222000000    -4.117000000
H     2.101000000     3.037000000    -3.865000000
C    -0.780000000     1.322000000    -4.455000000
C    -0.246000000     0.053000000    -4.739000000
H    -0.877000000    -0.826000000    -4.832000000
C     1.155000000    -0.126000000    -4.697000000
O     1.665000000    -1.380000000    -4.657000000
C     2.119000000    -1.888000000    -3.321000000
C     1.687000000    -3.309000000    -3.113000000
C     0.599000000    -3.808000000    -3.823000000
H     0.064000000    -3.204000000    -4.552000000
C     2.305000000    -4.058000000    -2.134000000
H     3.140000000    -3.651000000    -1.570000000
O     3.475000000    -1.557000000    -3.091000000
H     1.550000000    -1.281000000    -2.600000000
C     1.980000000     0.978000000    -4.402000000
C     3.561000000     0.969000000    -4.190000000
H     4.078000000     1.840000000    -4.599000000
H     3.975000000     0.175000000    -4.816000000
C     3.978000000     0.750000000    -2.735000000
C     3.883000000    -0.603000000    -2.280000000
C     4.459000000    -0.969000000    -1.044000000
H     4.360000000    -2.023000000    -0.797000000
C     4.817000000    -0.017000000    -0.179000000
O     4.978000000    -0.295000000     1.146000000
C     3.784000000    -0.134000000     1.996000000
H     2.864000000    -0.057000000     1.398000000
C     3.563000000    -1.315000000     2.879000000
C     2.554000000    -1.168000000     3.904000000
H     2.146000000    -0.171000000     4.046000000
C     4.154000000    -2.598000000     2.675000000
H     4.866000000    -2.776000000     1.874000000
C     3.699000000    -3.633000000     3.478000000
O     4.219000000    -4.890000000     3.200000000
C     2.671000000    -3.486000000     4.383000000
H     2.412000000    -4.365000000     4.968000000
C     2.053000000    -2.286000000     4.622000000
O     0.969000000    -2.187000000     5.444000000
C     0.624000000    -1.090000000     6.188000000
C    -0.644000000    -0.482000000     6.160000000
H    -1.424000000    -0.792000000     5.469000000
C     1.583000000    -0.513000000     7.028000000
H     2.571000000    -0.965000000     7.057000000
C     1.296000000     0.608000000     7.755000000
H     2.105000000     1.104000000     8.286000000
C     0.108000000     1.284000000     7.621000000
H    -0.054000000     2.266000000     8.058000000
C    -0.888000000     0.737000000     6.798000000
O    -2.026000000     1.375000000     6.662000000
C    -2.464000000     1.773000000     5.390000000
C    -3.816000000     1.763000000     5.094000000
H    -4.415000000     1.304000000     5.877000000
C    -4.247000000     2.384000000     3.977000000
O    -5.635000000     2.687000000     3.840000000
C    -6.321000000     2.671000000     2.610000000
C    -6.094000000     1.619000000     1.737000000
H    -5.338000000     0.885000000     2.006000000
C    -7.297000000     3.616000000     2.262000000
H    -7.486000000     4.419000000     2.970000000
C    -7.993000000     3.557000000     1.123000000
H    -8.666000000     4.331000000     0.763000000
C    -7.800000000     2.442000000     0.280000000
H    -8.398000000     2.414000000    -0.627000000
C    -6.826000000     1.488000000     0.580000000
O    -6.672000000     0.379000000    -0.186000000
C    -5.665000000     0.083000000    -1.151000000
C    -5.734000000    -1.095000000    -1.958000000
H    -6.497000000    -1.834000000    -1.727000000
C    -4.829000000    -1.366000000    -2.934000000
O    -4.932000000    -2.528000000    -3.606000000
C    -3.937000000    -3.116000000    -4.225000000
C    -3.019000000    -3.968000000    -3.670000000
H    -3.024000000    -4.131000000    -2.595000000
C    -3.966000000    -2.979000000    -5.657000000
H    -4.743000000    -2.335000000    -6.064000000
C    -2.965000000    -3.481000000    -6.470000000
H    -2.945000000    -3.383000000    -7.552000000
C    -1.950000000    -4.222000000    -5.842000000
H    -1.113000000    -4.607000000    -6.419000000
C    -2.009000000    -4.486000000    -4.469000000
O    -1.199000000    -5.434000000    -4.022000000
C     0.035000000    -5.030000000    -3.441000000
C     0.600000000    -5.696000000    -2.432000000
H     0.116000000    -6.643000000    -2.208000000
C     1.749000000    -5.307000000    -1.775000000
O     2.147000000    -6.233000000    -0.825000000
C     3.216000000    -6.239000000     0.005000000
C     4.406000000    -6.826000000    -0.440000000
H     4.424000000    -7.569000000    -1.234000000
C     5.555000000    -6.811000000     0.405000000
H     6.496000000    -7.219000000     0.048000000
C     5.393000000    -6.262000000     1.701000000
H     6.227000000    -6.227000000     2.397000000
C     4.262000000    -5.488000000     2.005000000
C     3.169000000    -5.505000000     1.198000000
H     2.295000000    -4.889000000     1.392000000
C    -1.749000000    -1.553000000     0.047000000
H    -2.632000000    -2.052000000    -0.345000000
C    -0.769000000    -0.898000000    -0.765000000
H    -0.809000000    -1.041000000    -1.842000000
C     0.137000000     0.047000000    -0.141000000
H     0.795000000     0.581000000    -0.843000000
C     0.185000000     0.146000000     1.249000000
H     0.899000000     0.838000000     1.688000000
C    -0.762000000    -0.562000000     2.002000000
H    -0.638000000    -0.474000000     3.079000000
C    -1.767000000    -1.410000000     1.412000000
C    -2.845000000    -2.139000000     2.250000000
O    -2.857000000    -1.830000000     3.427000000
O    -3.493000000    -3.113000000     1.885000000
O    -6.304000000    -3.297000000     6.790000000
H    -5.396000000    -3.456000000     7.048000000
H    -6.245000000    -2.985000000     5.887000000
O    -5.611000000    -6.504000000     1.543000000
H    -6.567000000    -6.455000000     1.565000000
H    -5.418000000    -7.441000000     1.577000000
O    -5.893000000    -1.154000000     8.327000000
H    -6.239000000    -1.858000000     7.778000000
H    -4.971000000    -1.087000000     8.079000000
O    -4.139000000    -6.616000000    -0.877000000
H    -3.511000000    -6.153000000    -0.323000000
H    -4.984000000    -6.478000000    -0.449000000
O    -9.224000000    -1.222000000     0.607000000
H    -9.329000000    -0.779000000     1.448000000
H    -8.282000000    -1.195000000     0.437000000
O    -2.351000000    -5.375000000     0.705000000
H    -2.865000000    -4.634000000     1.025000000
H    -1.635000000    -5.460000000     1.333000000
O    -6.067000000    -3.400000000     1.052000000
H    -5.238000000    -3.325000000     1.525000000
H    -6.123000000    -4.326000000     0.814000000
O    -2.286000000    -3.202000000     6.054000000
H    -2.525000000    -2.941000000     5.165000000
H    -1.728000000    -3.971000000     5.937000000
O    -4.981000000    -1.219000000     4.761000000
H    -4.406000000    -1.502000000     4.050000000
H    -4.383000000    -0.939000000     5.454000000
O    -3.460000000    -1.054000000     7.540000000
H    -2.956000000    -1.650000000     6.986000000
H    -3.057000000    -1.132000000     8.405000000
O    -4.010000000    -5.101000000     7.549000000
H    -3.411000000    -4.823000000     6.856000000
H    -4.349000000    -5.944000000     7.249000000
O    -2.399000000    -8.437000000     1.499000000
H    -1.782000000    -8.660000000     0.801000000
H    -2.468000000    -7.483000000     1.462000000
O    -6.756000000    -2.987000000     3.838000000
H    -6.591000000    -3.021000000     2.895000000
H    -6.217000000    -2.259000000     4.149000000
O    -6.902000000    -5.022000000    -1.094000000
H    -7.598000000    -5.282000000    -1.698000000
H    -6.970000000    -4.068000000    -1.047000000
O    -4.318000000    -4.969000000     3.803000000
H    -4.696000000    -5.319000000     2.996000000
H    -3.776000000    -4.234000000     3.515000000
O    -9.506000000    -3.539000000     4.075000000
H    -9.653000000    -4.017000000     3.259000000
H    -8.577000000    -3.308000000     4.053000000
O    -1.971000000    -5.991000000     5.704000000
H    -1.435000000    -6.784000000     5.679000000
H    -2.439000000    -5.992000000     4.869000000
O    -0.290000000    -5.648000000     2.744000000
H     0.424000000    -6.282000000     2.805000000
H    -0.248000000    -5.161000000     3.567000000
O    -6.612000000    -5.793000000     4.883000000
H    -5.671000000    -5.655000000     4.774000000
H    -7.014000000    -5.011000000     4.505000000
