215
-1441.60509
C    -3.773000000     1.967000000     2.057000000
H    -3.520000000     2.141000000     1.014000000
C    -2.866000000     2.483000000     3.010000000
C    -3.051000000     2.145000000     4.346000000
H    -2.387000000     2.605000000     5.075000000
C    -1.654000000     3.242000000     2.594000000
O    -1.981000000     4.329000000     1.669000000
H    -1.202000000     2.512000000     1.906000000
O    -0.821000000     3.713000000     3.630000000
C     0.478000000     3.341000000     3.499000000
C     0.899000000     2.098000000     4.067000000
H     0.144000000     1.617000000     4.684000000
C     2.198000000     1.634000000     3.881000000
O     2.514000000     0.338000000     4.192000000
C     3.052000000     2.328000000     2.991000000
C     4.445000000     1.724000000     2.653000000
H     5.175000000     2.522000000     2.500000000
C     4.415000000     0.883000000     1.415000000
C     4.807000000     1.450000000     0.233000000
H     5.129000000     2.481000000     0.110000000
H     4.851000000     1.036000000     3.397000000
C     2.633000000     3.533000000     2.390000000
H     3.252000000     3.951000000     1.600000000
C     1.360000000     4.054000000     2.652000000
C     0.900000000     5.345000000     1.971000000
H     1.793000000     5.932000000     1.746000000
H     0.269000000     5.944000000     2.631000000
C     0.203000000     5.018000000     0.683000000
C     0.984000000     5.000000000    -0.473000000
H     2.019000000     5.286000000    -0.302000000
C    -1.136000000     4.560000000     0.607000000
C    -1.582000000     4.111000000    -0.609000000
H    -2.544000000     3.640000000    -0.794000000
C    -0.783000000     4.139000000    -1.784000000
O    -1.404000000     3.679000000    -2.940000000
C    -1.065000000     2.316000000    -3.324000000
C    -2.324000000     1.462000000    -3.713000000
C    -2.145000000     0.235000000    -4.430000000
H    -1.202000000    -0.105000000    -4.851000000
C    -3.583000000     1.766000000    -3.263000000
H    -3.791000000     2.699000000    -2.745000000
O    -0.097000000     2.377000000    -4.400000000
H    -0.594000000     1.799000000    -2.475000000
C     0.500000000     4.639000000    -1.725000000
C     1.356000000     4.751000000    -2.991000000
H     2.141000000     5.500000000    -2.863000000
H     0.744000000     5.136000000    -3.810000000
C     1.898000000     3.383000000    -3.260000000
C     3.138000000     2.993000000    -2.748000000
H     3.601000000     3.668000000    -2.033000000
C     1.240000000     2.411000000    -4.097000000
C     1.826000000     1.202000000    -4.388000000
H     1.273000000     0.505000000    -5.013000000
C     3.033000000     0.872000000    -3.789000000
O     3.273000000    -0.442000000    -3.971000000
C     2.953000000    -1.228000000    -2.772000000
C     2.463000000    -2.591000000    -3.243000000
C     1.977000000    -2.901000000    -4.510000000
H     2.065000000    -2.211000000    -5.345000000
C     2.465000000    -3.598000000    -2.302000000
H     2.868000000    -3.373000000    -1.319000000
O     4.163000000    -1.440000000    -1.993000000
H     2.214000000    -0.726000000    -2.131000000
C     3.714000000     1.764000000    -2.999000000
C     4.971000000     1.346000000    -2.313000000
H     5.737000000     2.124000000    -2.293000000
H     5.492000000     0.579000000    -2.890000000
C     4.773000000     0.706000000    -0.958000000
C     4.388000000    -0.645000000    -0.859000000
C     4.226000000    -1.261000000     0.320000000
H     3.902000000    -2.298000000     0.292000000
C     4.037000000    -0.489000000     1.467000000
O     3.738000000    -1.099000000     2.613000000
C     2.433000000    -0.766000000     3.201000000
H     1.794000000    -0.420000000     2.375000000
C     1.723000000    -1.940000000     3.786000000
C     0.944000000    -1.883000000     4.952000000
H     0.854000000    -0.937000000     5.481000000
C     1.917000000    -3.206000000     3.157000000
H     2.700000000    -3.252000000     2.404000000
C     1.212000000    -4.379000000     3.544000000
O     1.474000000    -5.653000000     3.079000000
C     0.390000000    -4.199000000     4.694000000
H    -0.096000000    -5.099000000     5.063000000
C     0.210000000    -2.961000000     5.369000000
O    -0.712000000    -2.829000000     6.426000000
C    -1.382000000    -1.746000000     6.873000000
C    -2.273000000    -1.011000000     6.075000000
H    -2.549000000    -1.387000000     5.093000000
C    -1.193000000    -1.297000000     8.183000000
H    -0.338000000    -1.809000000     8.618000000
C    -1.818000000    -0.166000000     8.685000000
H    -1.700000000     0.143000000     9.721000000
C    -2.844000000     0.398000000     7.919000000
H    -3.440000000     1.196000000     8.356000000
C    -3.004000000     0.036000000     6.582000000
O    -4.013000000     0.647000000     5.924000000
C    -3.928000000     1.160000000     4.684000000
C    -4.637000000     0.422000000     3.683000000
H    -5.182000000    -0.510000000     3.813000000
C    -4.588000000     0.872000000     2.375000000
O    -5.326000000     0.315000000     1.425000000
C    -6.004000000     0.945000000     0.434000000
C    -5.642000000     0.798000000    -0.900000000
H    -4.806000000     0.126000000    -1.080000000
C    -6.962000000     1.962000000     0.742000000
H    -7.193000000     2.284000000     1.755000000
C    -7.605000000     2.718000000    -0.278000000
H    -8.417000000     3.361000000     0.053000000
C    -7.298000000     2.348000000    -1.569000000
H    -7.686000000     2.995000000    -2.352000000
C    -6.281000000     1.514000000    -1.891000000
O    -5.899000000     1.386000000    -3.192000000
C    -4.666000000     1.048000000    -3.618000000
C    -4.536000000    -0.181000000    -4.252000000
H    -5.444000000    -0.751000000    -4.426000000
C    -3.250000000    -0.616000000    -4.641000000
O    -3.196000000    -1.809000000    -5.331000000
C    -2.216000000    -2.335000000    -6.160000000
C    -1.085000000    -3.021000000    -5.666000000
H    -1.037000000    -3.151000000    -4.588000000
C    -2.387000000    -2.177000000    -7.597000000
H    -3.177000000    -1.578000000    -8.044000000
C    -1.406000000    -2.766000000    -8.390000000
H    -1.529000000    -2.670000000    -9.466000000
C    -0.252000000    -3.472000000    -7.861000000
H     0.455000000    -3.899000000    -8.567000000
C    -0.158000000    -3.612000000    -6.497000000
O     0.902000000    -4.432000000    -6.055000000
C     1.400000000    -4.172000000    -4.762000000
C     1.411000000    -5.173000000    -3.781000000
H     0.836000000    -6.073000000    -3.986000000
C     2.065000000    -4.989000000    -2.600000000
O     2.119000000    -6.037000000    -1.683000000
C     2.646000000    -5.932000000    -0.391000000
C     4.033000000    -5.900000000    -0.162000000
H     4.758000000    -5.857000000    -0.970000000
C     4.576000000    -5.968000000     1.130000000
H     5.657000000    -5.900000000     1.220000000
C     3.697000000    -5.908000000     2.215000000
H     3.980000000    -5.935000000     3.264000000
C     2.306000000    -5.875000000     1.983000000
C     1.774000000    -5.863000000     0.719000000
H     0.705000000    -5.843000000     0.518000000
C    -2.185000000    -1.759000000    -0.340000000
H    -2.700000000    -2.186000000    -1.197000000
C    -1.113000000    -0.860000000    -0.618000000
H    -0.917000000    -0.628000000    -1.661000000
C    -0.441000000    -0.173000000     0.411000000
H     0.408000000     0.551000000     0.243000000
C    -0.836000000    -0.501000000     1.705000000
H    -0.457000000     0.008000000     2.587000000
C    -1.787000000    -1.437000000     1.977000000
H    -1.955000000    -1.767000000     2.999000000
C    -2.539000000    -2.069000000     0.979000000
C    -3.744000000    -2.919000000     1.310000000
O    -4.046000000    -3.244000000     2.434000000
O    -4.493000000    -3.326000000     0.425000000
O    -7.140000000    -1.586000000    -2.481000000
H    -7.309000000    -0.708000000    -2.822000000
H    -7.946000000    -1.824000000    -2.023000000
O    -7.537000000    -7.948000000     3.899000000
H    -7.650000000    -8.857000000     3.621000000
H    -7.559000000    -7.444000000     3.086000000
O    -5.091000000    -6.292000000     2.829000000
H    -4.685000000    -5.457000000     2.597000000
H    -5.868000000    -6.344000000     2.272000000
O    -2.800000000    -4.917000000    -2.455000000
H    -2.616000000    -5.207000000    -1.561000000
H    -3.647000000    -4.475000000    -2.393000000
O    -5.062000000    -3.274000000    -2.141000000
H    -5.660000000    -2.541000000    -2.289000000
H    -4.745000000    -3.146000000    -1.247000000
O    -7.015000000    -3.528000000     0.194000000
H    -6.072000000    -3.374000000     0.247000000
H    -7.210000000    -3.498000000    -0.743000000
O    -2.619000000    -5.109000000     4.519000000
H    -2.939000000    -4.420000000     3.937000000
H    -2.177000000    -5.727000000     3.938000000
O    -8.245000000    -1.461000000     1.550000000
H    -7.522000000    -0.851000000     1.407000000
H    -7.902000000    -2.309000000     1.267000000
O    -3.969000000    -9.114000000     3.928000000
H    -4.373000000    -8.261000000     3.768000000
H    -3.464000000    -8.992000000     4.732000000
O    -5.254000000    -2.170000000     6.355000000
H    -4.844000000    -2.864000000     6.871000000
H    -5.538000000    -2.605000000     5.551000000
O    -5.445000000    -6.152000000    -1.737000000
H    -5.500000000    -5.237000000    -2.012000000
H    -4.582000000    -6.229000000    -1.329000000
O    -6.226000000    -3.268000000     3.838000000
H    -5.445000000    -3.174000000     3.293000000
H    -6.461000000    -4.194000000     3.763000000
O    -1.347000000    -6.819000000     2.847000000
H    -0.911000000    -7.671000000     2.833000000
H    -0.649000000    -6.195000000     3.044000000
O    -3.139000000    -5.780000000    -0.004000000
H    -3.658000000    -5.046000000     0.326000000
H    -2.743000000    -6.164000000     0.778000000
O    -4.658000000    -8.434000000     1.073000000
H    -4.159000000    -9.158000000     1.450000000
H    -4.554000000    -7.719000000     1.701000000
O    -9.272000000    -2.709000000     4.081000000
H    -8.346000000    -2.472000000     4.028000000
H    -9.585000000    -2.653000000     3.178000000
O    -3.709000000    -6.042000000     6.656000000
H    -3.466000000    -6.949000000     6.472000000
H    -3.339000000    -5.542000000     5.928000000
O    -1.182000000    -7.846000000    -1.320000000
H    -1.558000000    -8.405000000    -2.000000000
H    -1.859000000    -7.193000000    -1.145000000
O    -7.634000000    -6.071000000     1.385000000
H    -7.606000000    -5.283000000     0.843000000
H    -8.564000000    -6.204000000     1.567000000
