215
-1451.36669
C    -3.103000000     1.700000000     2.519000000
H    -3.077000000     1.914000000     1.454000000
C    -2.065000000     2.073000000     3.350000000
C    -1.949000000     1.562000000     4.634000000
H    -1.153000000     1.766000000     5.345000000
C    -0.839000000     2.946000000     2.827000000
O    -1.132000000     4.211000000     2.180000000
H    -0.251000000     2.328000000     2.132000000
O     0.120000000     3.266000000     3.787000000
C     1.428000000     2.976000000     3.480000000
C     2.007000000     1.785000000     3.910000000
H     1.395000000     1.097000000     4.488000000
C     3.203000000     1.424000000     3.407000000
O     3.564000000     0.117000000     3.578000000
C     3.867000000     2.147000000     2.417000000
C     5.054000000     1.473000000     1.653000000
H     5.657000000     2.337000000     1.367000000
C     4.748000000     0.536000000     0.507000000
C     4.844000000     1.002000000    -0.839000000
H     5.123000000     2.034000000    -1.038000000
H     5.746000000     0.984000000     2.342000000
C     3.355000000     3.369000000     1.971000000
H     3.893000000     3.882000000     1.179000000
C     2.091000000     3.764000000     2.514000000
C     1.474000000     5.013000000     1.944000000
H     2.210000000     5.765000000     1.653000000
H     0.861000000     5.514000000     2.696000000
C     0.629000000     4.766000000     0.746000000
C     1.256000000     4.771000000    -0.550000000
H     2.287000000     5.068000000    -0.722000000
C    -0.662000000     4.439000000     0.960000000
C    -1.482000000     4.087000000    -0.161000000
H    -2.499000000     3.742000000     0.008000000
C    -0.956000000     4.193000000    -1.501000000
O    -1.727000000     3.665000000    -2.489000000
C    -1.542000000     2.299000000    -2.992000000
C    -2.916000000     1.617000000    -3.389000000
C    -2.947000000     0.692000000    -4.434000000
H    -2.073000000     0.480000000    -5.045000000
C    -4.101000000     1.944000000    -2.717000000
H    -3.983000000     2.801000000    -2.058000000
O    -0.736000000     2.371000000    -4.130000000
H    -0.994000000     1.709000000    -2.243000000
C     0.390000000     4.519000000    -1.628000000
C     1.029000000     4.449000000    -3.034000000
H     1.784000000     5.195000000    -3.291000000
H     0.284000000     4.699000000    -3.792000000
C     1.483000000     3.086000000    -3.417000000
C     2.826000000     2.708000000    -3.203000000
H     3.511000000     3.477000000    -2.855000000
C     0.589000000     2.137000000    -3.987000000
C     1.022000000     0.897000000    -4.325000000
H     0.344000000     0.217000000    -4.833000000
C     2.317000000     0.519000000    -4.156000000
O     2.581000000    -0.755000000    -4.469000000
C     2.598000000    -1.650000000    -3.321000000
C     1.893000000    -2.958000000    -3.492000000
C     0.730000000    -2.938000000    -4.280000000
H     0.496000000    -1.950000000    -4.668000000
C     2.219000000    -4.113000000    -2.797000000
H     3.099000000    -4.199000000    -2.165000000
O     3.932000000    -1.804000000    -2.871000000
H     2.037000000    -1.028000000    -2.609000000
C     3.247000000     1.431000000    -3.544000000
C     4.645000000     0.966000000    -3.255000000
H     5.310000000     1.829000000    -3.331000000
H     4.917000000     0.266000000    -4.048000000
C     4.633000000     0.232000000    -1.919000000
C     4.239000000    -1.070000000    -1.724000000
C     4.185000000    -1.649000000    -0.485000000
H     3.988000000    -2.701000000    -0.296000000
C     4.367000000    -0.837000000     0.646000000
O     4.243000000    -1.427000000     1.919000000
C     3.120000000    -0.872000000     2.630000000
H     2.386000000    -0.508000000     1.896000000
C     2.298000000    -1.934000000     3.274000000
C     1.924000000    -1.839000000     4.598000000
H     2.268000000    -0.952000000     5.124000000
C     1.709000000    -2.876000000     2.525000000
H     1.911000000    -2.968000000     1.461000000
C     0.921000000    -3.821000000     3.107000000
O     0.348000000    -4.797000000     2.303000000
C     0.657000000    -3.780000000     4.485000000
H     0.092000000    -4.602000000     4.917000000
C     1.186000000    -2.778000000     5.274000000
O     0.874000000    -2.699000000     6.624000000
C     0.090000000    -1.757000000     7.190000000
C    -1.040000000    -1.262000000     6.526000000
H    -1.311000000    -1.785000000     5.612000000
C     0.319000000    -1.232000000     8.501000000
H     1.137000000    -1.668000000     9.070000000
C    -0.413000000    -0.206000000     8.984000000
H    -0.184000000     0.165000000     9.980000000
C    -1.496000000     0.320000000     8.288000000
H    -2.096000000     1.139000000     8.678000000
C    -1.806000000    -0.229000000     7.046000000
O    -3.004000000     0.155000000     6.374000000
C    -2.967000000     0.824000000     5.157000000
C    -4.065000000     0.440000000     4.351000000
H    -4.927000000    -0.103000000     4.730000000
C    -4.140000000     0.856000000     2.998000000
O    -5.237000000     0.619000000     2.237000000
C    -5.778000000     1.509000000     1.308000000
C    -5.820000000     1.143000000    -0.022000000
H    -5.314000000     0.234000000    -0.336000000
C    -6.329000000     2.759000000     1.776000000
H    -6.225000000     3.091000000     2.805000000
C    -6.952000000     3.659000000     0.862000000
H    -7.493000000     4.548000000     1.176000000
C    -6.974000000     3.226000000    -0.486000000
H    -7.501000000     3.854000000    -1.200000000
C    -6.367000000     2.059000000    -0.941000000
O    -6.420000000     1.718000000    -2.300000000
C    -5.299000000     1.303000000    -2.959000000
C    -5.319000000     0.325000000    -3.943000000
H    -6.326000000    -0.027000000    -4.153000000
C    -4.163000000    -0.023000000    -4.656000000
O    -4.335000000    -0.943000000    -5.642000000
C    -3.192000000    -1.524000000    -6.209000000
C    -2.604000000    -2.655000000    -5.700000000
H    -3.058000000    -3.146000000    -4.843000000
C    -2.561000000    -0.828000000    -7.250000000
H    -2.974000000     0.111000000    -7.608000000
C    -1.364000000    -1.343000000    -7.801000000
H    -0.881000000    -0.876000000    -8.655000000
C    -0.826000000    -2.551000000    -7.312000000
H     0.126000000    -2.867000000    -7.733000000
C    -1.408000000    -3.161000000    -6.190000000
O    -0.771000000    -4.229000000    -5.618000000
C     0.022000000    -4.087000000    -4.489000000
C     0.192000000    -5.181000000    -3.696000000
H    -0.404000000    -6.067000000    -3.902000000
C     1.328000000    -5.201000000    -2.816000000
O     1.563000000    -6.319000000    -2.088000000
C     1.714000000    -6.284000000    -0.741000000
C     2.793000000    -7.014000000    -0.219000000
H     3.460000000    -7.526000000    -0.908000000
C     2.973000000    -6.929000000     1.156000000
H     3.780000000    -7.450000000     1.665000000
C     2.250000000    -6.091000000     1.995000000
H     2.361000000    -6.214000000     3.070000000
C     1.113000000    -5.490000000     1.461000000
C     0.831000000    -5.533000000     0.058000000
H    -0.001000000    -4.981000000    -0.373000000
C    -1.825000000    -1.519000000    -0.852000000
H    -2.402000000    -1.960000000    -1.661000000
C    -0.786000000    -0.671000000    -1.175000000
H    -0.362000000    -0.581000000    -2.172000000
C    -0.110000000    -0.050000000    -0.145000000
H     0.706000000     0.656000000    -0.234000000
C    -0.464000000    -0.344000000     1.175000000
H     0.120000000     0.082000000     1.987000000
C    -1.488000000    -1.188000000     1.525000000
H    -1.671000000    -1.387000000     2.577000000
C    -2.165000000    -1.831000000     0.453000000
C    -3.193000000    -2.859000000     0.835000000
O    -3.636000000    -2.939000000     2.037000000
O    -3.521000000    -3.695000000     0.018000000
O    -4.980000000    -8.160000000    -2.999000000
H    -4.986000000    -8.361000000    -2.063000000
H    -5.903000000    -8.175000000    -3.253000000
O    -1.919000000    -5.672000000     6.347000000
H    -1.648000000    -5.302000000     7.187000000
H    -2.055000000    -4.911000000     5.783000000
O    -8.190000000    -1.166000000    -2.408000000
H    -8.215000000    -0.374000000    -1.871000000
H    -7.638000000    -1.772000000    -1.915000000
O    -2.037000000    -7.694000000    -2.594000000
H    -2.986000000    -7.786000000    -2.678000000
H    -1.911000000    -6.800000000    -2.275000000
O    -5.708000000    -5.195000000     2.397000000
H    -4.865000000    -4.854000000     2.101000000
H    -5.545000000    -5.495000000     3.291000000
O    -6.614000000    -3.125000000    -1.425000000
H    -5.704000000    -3.418000000    -1.473000000
H    -6.812000000    -3.109000000    -0.489000000
O    -5.370000000    -5.491000000    -0.431000000
H    -5.816000000    -5.530000000     0.415000000
H    -4.690000000    -4.829000000    -0.313000000
O    -8.316000000    -5.543000000     2.506000000
H    -7.368000000    -5.441000000     2.423000000
H    -8.467000000    -5.622000000     3.448000000
O    -7.364000000    -5.991000000    -2.405000000
H    -8.295000000    -5.783000000    -2.324000000
H    -6.954000000    -5.548000000    -1.663000000
O    -3.154000000    -3.352000000     4.758000000
H    -3.198000000    -3.250000000     3.807000000
H    -4.033000000    -3.127000000     5.063000000
O    -8.387000000    -2.255000000     3.714000000
H    -7.859000000    -2.200000000     4.510000000
H    -8.313000000    -3.169000000     3.439000000
O    -6.124000000    -2.307000000     1.192000000
H    -5.254000000    -2.569000000     1.491000000
H    -6.440000000    -1.709000000     1.869000000
O    -1.990000000    -8.638000000     2.575000000
H    -2.130000000    -7.732000000     2.302000000
H    -2.123000000    -8.625000000     3.523000000
O    -4.141000000    -8.038000000     0.131000000
H    -4.700000000    -7.281000000    -0.043000000
H    -3.494000000    -7.719000000     0.760000000
O    -2.368000000    -6.252000000     1.557000000
H    -2.567000000    -5.502000000     0.997000000
H    -1.689000000    -5.933000000     2.152000000
O    -2.552000000    -5.103000000    -2.129000000
H    -3.232000000    -5.024000000    -2.799000000
H    -2.916000000    -4.655000000    -1.365000000
O    -5.294000000    -6.015000000     5.249000000
H    -4.565000000    -6.264000000     5.817000000
H    -5.913000000    -5.575000000     5.832000000
O    -5.130000000    -2.827000000     6.824000000
H    -4.701000000    -3.090000000     7.638000000
H    -5.523000000    -1.977000000     7.023000000
O    -4.829000000    -4.851000000    -3.526000000
H    -5.545000000    -4.752000000    -2.898000000
H    -4.876000000    -5.767000000    -3.800000000
