215
-1427.38983
C    -2.873000000     2.218000000     2.572000000
H    -2.821000000     2.546000000     1.537000000
C    -1.732000000     2.365000000     3.437000000
C    -1.734000000     1.575000000     4.608000000
H    -0.892000000     1.581000000     5.296000000
C    -0.500000000     2.969000000     2.877000000
O    -0.807000000     4.215000000     2.282000000
H    -0.084000000     2.323000000     2.089000000
O     0.532000000     3.069000000     3.871000000
C     1.756000000     2.576000000     3.463000000
C     2.124000000     1.318000000     3.887000000
H     1.451000000     0.846000000     4.598000000
C     3.234000000     0.659000000     3.377000000
O     3.430000000    -0.672000000     3.693000000
C     4.087000000     1.370000000     2.510000000
C     5.290000000     0.613000000     2.041000000
H     6.192000000     1.211000000     1.895000000
C     4.924000000    -0.015000000     0.680000000
C     4.997000000     0.708000000    -0.563000000
H     5.361000000     1.731000000    -0.617000000
H     5.445000000    -0.151000000     2.806000000
C     3.805000000     2.681000000     2.145000000
H     4.553000000     3.253000000     1.603000000
C     2.640000000     3.296000000     2.631000000
C     2.139000000     4.644000000     2.115000000
H     2.966000000     5.248000000     1.738000000
H     1.777000000     5.236000000     2.958000000
C     1.150000000     4.603000000     0.990000000
C     1.651000000     4.701000000    -0.331000000
H     2.733000000     4.653000000    -0.422000000
C    -0.245000000     4.597000000     1.100000000
C    -1.044000000     4.550000000    -0.061000000
H    -2.112000000     4.353000000    -0.011000000
C    -0.533000000     4.742000000    -1.323000000
O    -1.366000000     4.589000000    -2.423000000
C    -1.360000000     3.284000000    -2.917000000
C    -2.692000000     2.775000000    -3.354000000
C    -2.816000000     1.954000000    -4.464000000
H    -1.995000000     1.684000000    -5.123000000
C    -3.879000000     3.049000000    -2.597000000
H    -3.902000000     3.703000000    -1.729000000
O    -0.468000000     3.304000000    -4.043000000
H    -0.930000000     2.687000000    -2.099000000
C     0.831000000     4.862000000    -1.483000000
C     1.503000000     4.854000000    -2.888000000
H     2.486000000     5.320000000    -2.788000000
H     0.999000000     5.428000000    -3.668000000
C     1.784000000     3.406000000    -3.300000000
C     2.936000000     2.721000000    -2.970000000
H     3.712000000     3.270000000    -2.441000000
C     0.760000000     2.752000000    -3.951000000
C     0.938000000     1.467000000    -4.295000000
H     0.134000000     0.993000000    -4.853000000
C     2.036000000     0.739000000    -3.938000000
O     2.062000000    -0.641000000    -4.109000000
C     2.027000000    -1.572000000    -3.040000000
C     1.185000000    -2.827000000    -3.331000000
C     0.097000000    -2.680000000    -4.203000000
H    -0.087000000    -1.699000000    -4.635000000
C     1.451000000    -4.113000000    -2.846000000
H     2.283000000    -4.258000000    -2.162000000
O     3.400000000    -1.809000000    -2.734000000
H     1.592000000    -1.132000000    -2.130000000
C     3.046000000     1.367000000    -3.273000000
C     4.475000000     0.727000000    -2.956000000
H     5.278000000     1.464000000    -2.884000000
H     4.757000000     0.029000000    -3.747000000
C     4.517000000     0.027000000    -1.662000000
C     4.018000000    -1.316000000    -1.615000000
C     3.900000000    -1.981000000    -0.408000000
H     3.378000000    -2.932000000    -0.334000000
C     4.381000000    -1.321000000     0.777000000
O     4.222000000    -2.084000000     1.988000000
C     3.084000000    -1.746000000     2.723000000
H     2.432000000    -1.222000000     2.007000000
C     2.320000000    -2.830000000     3.367000000
C     1.773000000    -2.732000000     4.707000000
H     1.943000000    -1.902000000     5.388000000
C     1.987000000    -3.947000000     2.576000000
H     2.237000000    -3.946000000     1.518000000
C     1.120000000    -4.938000000     3.072000000
O     0.571000000    -5.917000000     2.380000000
C     0.688000000    -4.891000000     4.382000000
H    -0.066000000    -5.608000000     4.696000000
C     0.978000000    -3.780000000     5.147000000
O     0.463000000    -3.619000000     6.438000000
C    -0.162000000    -2.418000000     6.834000000
C    -1.354000000    -1.826000000     6.297000000
H    -1.933000000    -2.383000000     5.566000000
C     0.588000000    -1.834000000     7.877000000
H     1.544000000    -2.258000000     8.173000000
C     0.198000000    -0.540000000     8.353000000
H     0.813000000    -0.014000000     9.077000000
C    -1.005000000     0.033000000     7.808000000
H    -1.348000000     0.971000000     8.237000000
C    -1.687000000    -0.518000000     6.697000000
O    -2.804000000     0.136000000     6.267000000
C    -2.789000000     0.813000000     5.074000000
C    -3.907000000     0.714000000     4.264000000
H    -4.774000000     0.145000000     4.589000000
C    -3.986000000     1.383000000     3.031000000
O    -5.094000000     1.130000000     2.217000000
C    -5.565000000     2.110000000     1.425000000
C    -5.342000000     2.177000000     0.020000000
H    -4.636000000     1.487000000    -0.434000000
C    -6.429000000     2.979000000     1.962000000
H    -6.581000000     3.026000000     3.038000000
C    -7.122000000     3.945000000     1.220000000
H    -7.774000000     4.633000000     1.751000000
C    -7.057000000     3.889000000    -0.171000000
H    -7.739000000     4.349000000    -0.882000000
C    -6.179000000     2.942000000    -0.764000000
O    -6.205000000     2.745000000    -2.147000000
C    -5.094000000     2.429000000    -2.917000000
C    -5.249000000     1.722000000    -4.061000000
H    -6.216000000     1.265000000    -4.255000000
C    -4.095000000     1.454000000    -4.823000000
O    -4.187000000     0.646000000    -5.957000000
C    -3.260000000    -0.308000000    -6.326000000
C    -3.106000000    -1.462000000    -5.563000000
H    -3.665000000    -1.869000000    -4.724000000
C    -2.677000000    -0.245000000    -7.563000000
H    -2.914000000     0.732000000    -7.978000000
C    -1.855000000    -1.233000000    -8.068000000
H    -1.332000000    -1.045000000    -9.002000000
C    -1.541000000    -2.312000000    -7.247000000
H    -0.792000000    -3.034000000    -7.562000000
C    -2.170000000    -2.418000000    -5.962000000
O    -1.913000000    -3.506000000    -5.199000000
C    -0.738000000    -3.762000000    -4.514000000
C    -0.487000000    -4.991000000    -3.940000000
H    -1.218000000    -5.778000000    -4.111000000
C     0.608000000    -5.195000000    -3.126000000
O     0.665000000    -6.386000000    -2.421000000
C     1.221000000    -6.500000000    -1.182000000
C     2.206000000    -7.387000000    -1.064000000
H     2.555000000    -7.861000000    -1.977000000
C     2.836000000    -7.719000000     0.132000000
H     3.579000000    -8.509000000     0.064000000
C     2.220000000    -7.304000000     1.294000000
H     2.704000000    -7.517000000     2.244000000
C     1.080000000    -6.529000000     1.217000000
C     0.516000000    -6.141000000    -0.038000000
H    -0.438000000    -5.621000000    -0.056000000
C    -1.961000000    -1.016000000    -1.251000000
H    -2.458000000    -1.257000000    -2.187000000
C    -0.917000000    -0.046000000    -1.320000000
H    -0.726000000     0.284000000    -2.338000000
C    -0.175000000     0.295000000    -0.195000000
H     0.606000000     1.008000000    -0.311000000
C    -0.492000000    -0.398000000     0.996000000
H     0.030000000    -0.140000000     1.914000000
C    -1.512000000    -1.338000000     1.044000000
H    -1.614000000    -1.875000000     1.983000000
C    -2.251000000    -1.685000000    -0.093000000
C    -3.301000000    -2.803000000    -0.018000000
O    -3.519000000    -3.260000000     1.058000000
O    -3.966000000    -3.157000000    -0.950000000
O    -3.670000000    -5.761000000    -4.977000000
H    -4.490000000    -6.114000000    -5.323000000
H    -3.908000000    -4.905000000    -4.621000000
O    -1.021000000    -9.004000000     1.863000000
H    -0.330000000    -9.227000000     1.239000000
H    -1.437000000    -8.226000000     1.492000000
O    -8.137000000    -1.376000000    -2.609000000
H    -7.522000000    -1.863000000    -2.060000000
H    -8.993000000    -1.539000000    -2.213000000
O    -1.543000000    -8.109000000    -1.791000000
H    -1.822000000    -8.235000000    -2.698000000
H    -1.761000000    -7.197000000    -1.597000000
O    -2.984000000    -6.744000000     3.925000000
H    -2.417000000    -6.830000000     4.692000000
H    -3.067000000    -5.800000000     3.793000000
O    -6.574000000    -2.579000000    -0.989000000
H    -5.631000000    -2.737000000    -1.041000000
H    -6.694000000    -2.119000000    -0.159000000
O    -6.705000000    -4.112000000    -5.587000000
H    -6.163000000    -3.871000000    -4.836000000
H    -7.601000000    -4.100000000    -5.250000000
O    -5.505000000    -5.128000000     0.855000000
H    -5.675000000    -5.194000000    -0.085000000
H    -4.824000000    -4.458000000     0.929000000
O    -7.787000000    -5.020000000     3.138000000
H    -7.526000000    -4.352000000     3.771000000
H    -7.080000000    -5.027000000     2.493000000
O    -7.281000000    -3.114000000     4.815000000
H    -6.350000000    -2.898000000     4.769000000
H    -7.700000000    -2.306000000     5.113000000
O    -8.648000000    -4.890000000    -0.468000000
H    -9.547000000    -4.601000000    -0.620000000
H    -8.187000000    -4.100000000    -0.185000000
O    -2.738000000    -4.147000000     3.332000000
H    -3.143000000    -3.686000000     2.598000000
H    -1.947000000    -4.539000000     2.962000000
O    -6.312000000    -2.064000000     1.661000000
H    -5.588000000    -2.680000000     1.775000000
H    -5.934000000    -1.210000000     1.869000000
O    -8.793000000    -1.009000000     2.550000000
H    -7.944000000    -1.375000000     2.303000000
H    -8.851000000    -0.188000000     2.060000000
O    -6.748000000    -6.221000000    -1.606000000
H    -7.417000000    -5.695000000    -1.167000000
H    -6.765000000    -5.920000000    -2.514000000
O    -2.778000000    -6.977000000     1.270000000
H    -3.107000000    -7.006000000     2.168000000
H    -3.460000000    -6.517000000     0.780000000
O    -2.998000000    -5.614000000    -1.798000000
H    -3.616000000    -5.717000000    -2.522000000
H    -3.181000000    -4.742000000    -1.449000000
O    -4.512000000    -2.589000000     4.621000000
H    -3.864000000    -3.258000000     4.403000000
H    -4.185000000    -2.194000000     5.430000000
O    -5.152000000    -3.387000000    -3.464000000
H    -4.513000000    -3.355000000    -2.752000000
H    -5.586000000    -2.535000000    -3.435000000
