215
-1448.11298
C    -3.046000000     2.776000000     1.910000000
H    -2.922000000     3.516000000     1.123000000
C    -1.942000000     2.590000000     2.836000000
C    -2.241000000     1.729000000     3.907000000
H    -1.383000000     1.344000000     4.453000000
C    -0.561000000     3.219000000     2.595000000
O    -0.608000000     4.473000000     1.898000000
H    -0.132000000     2.454000000     1.932000000
O     0.248000000     3.286000000     3.789000000
C     1.590000000     2.773000000     3.710000000
C     1.690000000     1.507000000     4.286000000
H     0.887000000     1.092000000     4.889000000
C     2.816000000     0.739000000     3.970000000
O     2.779000000    -0.582000000     4.438000000
C     3.854000000     1.235000000     3.131000000
C     4.944000000     0.357000000     2.724000000
H     5.813000000     0.955000000     2.444000000
C     4.622000000    -0.469000000     1.541000000
C     4.907000000    -0.014000000     0.242000000
H     5.256000000     0.995000000     0.041000000
H     5.167000000    -0.264000000     3.595000000
C     3.720000000     2.544000000     2.577000000
H     4.580000000     2.907000000     2.020000000
C     2.539000000     3.300000000     2.905000000
C     2.288000000     4.623000000     2.199000000
H     3.285000000     5.055000000     2.087000000
H     1.847000000     5.263000000     2.966000000
C     1.516000000     4.508000000     0.865000000
C     2.234000000     4.456000000    -0.356000000
H     3.315000000     4.365000000    -0.287000000
C     0.101000000     4.580000000     0.780000000
C    -0.545000000     4.594000000    -0.428000000
H    -1.631000000     4.578000000    -0.430000000
C     0.161000000     4.424000000    -1.583000000
O    -0.642000000     4.120000000    -2.687000000
C    -0.702000000     2.856000000    -3.233000000
C    -2.045000000     2.542000000    -3.925000000
C    -2.169000000     1.638000000    -4.973000000
H    -1.330000000     1.086000000    -5.390000000
C    -3.182000000     3.110000000    -3.396000000
H    -3.109000000     3.989000000    -2.761000000
O     0.377000000     2.740000000    -4.241000000
H    -0.496000000     2.122000000    -2.440000000
C     1.585000000     4.366000000    -1.575000000
C     2.387000000     4.204000000    -2.838000000
H     3.393000000     4.618000000    -2.740000000
H     1.782000000     4.661000000    -3.624000000
C     2.488000000     2.728000000    -3.134000000
C     3.531000000     1.992000000    -2.584000000
H     4.327000000     2.470000000    -2.020000000
C     1.533000000     2.043000000    -3.890000000
C     1.554000000     0.656000000    -3.965000000
H     0.718000000     0.175000000    -4.468000000
C     2.640000000    -0.045000000    -3.511000000
O     2.730000000    -1.397000000    -3.622000000
C     2.320000000    -2.255000000    -2.583000000
C     1.447000000    -3.443000000    -3.006000000
C     0.497000000    -3.195000000    -4.034000000
H     0.484000000    -2.199000000    -4.468000000
C     1.377000000    -4.622000000    -2.293000000
H     1.961000000    -4.785000000    -1.391000000
O     3.515000000    -2.724000000    -1.890000000
H     1.685000000    -1.716000000    -1.865000000
C     3.664000000     0.627000000    -2.811000000
C     4.848000000    -0.132000000    -2.310000000
H     5.648000000     0.593000000    -2.145000000
H     5.219000000    -0.868000000    -3.026000000
C     4.571000000    -0.748000000    -0.925000000
C     3.922000000    -2.013000000    -0.772000000
C     3.651000000    -2.470000000     0.512000000
H     3.292000000    -3.489000000     0.635000000
C     3.959000000    -1.694000000     1.621000000
O     3.558000000    -2.231000000     2.821000000
C     2.402000000    -1.651000000     3.494000000
H     1.752000000    -1.215000000     2.720000000
C     1.494000000    -2.681000000     4.037000000
C     0.813000000    -2.509000000     5.218000000
H     0.882000000    -1.542000000     5.709000000
C     1.288000000    -3.893000000     3.340000000
H     1.777000000    -4.022000000     2.378000000
C     0.308000000    -4.833000000     3.778000000
O    -0.017000000    -5.952000000     2.996000000
C    -0.389000000    -4.587000000     4.927000000
H    -1.163000000    -5.255000000     5.296000000
C    -0.087000000    -3.467000000     5.669000000
O    -0.842000000    -3.135000000     6.770000000
C    -1.352000000    -1.800000000     6.850000000
C    -2.369000000    -1.330000000     6.003000000
H    -2.945000000    -2.035000000     5.408000000
C    -0.672000000    -0.885000000     7.662000000
H     0.136000000    -1.167000000     8.333000000
C    -1.008000000     0.447000000     7.573000000
H    -0.536000000     1.225000000     8.167000000
C    -2.150000000     0.815000000     6.953000000
H    -2.501000000     1.843000000     7.009000000
C    -2.816000000    -0.050000000     6.082000000
O    -3.803000000     0.402000000     5.256000000
C    -3.525000000     1.221000000     4.171000000
C    -4.538000000     1.505000000     3.286000000
H    -5.582000000     1.352000000     3.546000000
C    -4.283000000     2.096000000     2.040000000
O    -5.354000000     2.151000000     1.182000000
C    -5.507000000     3.149000000     0.286000000
C    -5.379000000     2.772000000    -1.034000000
H    -5.128000000     1.733000000    -1.230000000
C    -5.952000000     4.405000000     0.683000000
H    -6.067000000     4.716000000     1.718000000
C    -6.320000000     5.323000000    -0.319000000
H    -6.601000000     6.330000000    -0.021000000
C    -6.248000000     4.894000000    -1.679000000
H    -6.645000000     5.489000000    -2.498000000
C    -5.781000000     3.684000000    -2.017000000
O    -5.611000000     3.293000000    -3.342000000
C    -4.472000000     2.741000000    -3.904000000
C    -4.542000000     1.706000000    -4.803000000
H    -5.552000000     1.349000000    -4.986000000
C    -3.400000000     1.216000000    -5.428000000
O    -3.577000000     0.400000000    -6.514000000
C    -2.799000000    -0.694000000    -6.692000000
C    -2.568000000    -1.697000000    -5.755000000
H    -3.183000000    -1.727000000    -4.859000000
C    -1.993000000    -0.678000000    -7.839000000
H    -2.068000000    -0.015000000    -8.697000000
C    -1.115000000    -1.760000000    -8.037000000
H    -0.557000000    -1.886000000    -8.962000000
C    -0.830000000    -2.722000000    -7.078000000
H    -0.092000000    -3.514000000    -7.171000000
C    -1.570000000    -2.675000000    -5.898000000
O    -1.510000000    -3.743000000    -5.063000000
C    -0.458000000    -4.110000000    -4.366000000
C    -0.558000000    -5.217000000    -3.566000000
H    -1.402000000    -5.903000000    -3.589000000
C     0.360000000    -5.502000000    -2.571000000
O     0.121000000    -6.586000000    -1.691000000
C     0.691000000    -6.752000000    -0.466000000
C     2.036000000    -7.235000000    -0.374000000
H     2.619000000    -7.348000000    -1.284000000
C     2.710000000    -7.200000000     0.806000000
H     3.774000000    -7.418000000     0.763000000
C     1.991000000    -6.752000000     1.938000000
H     2.501000000    -6.699000000     2.897000000
C     0.642000000    -6.358000000     1.886000000
C     0.030000000    -6.299000000     0.652000000
H    -1.000000000    -5.995000000     0.487000000
C    -1.861000000    -0.923000000    -0.793000000
H    -2.314000000    -1.246000000    -1.726000000
C    -0.691000000    -0.188000000    -0.887000000
H    -0.222000000     0.110000000    -1.821000000
C    -0.013000000     0.181000000     0.299000000
H     0.944000000     0.767000000     0.232000000
C    -0.522000000    -0.183000000     1.548000000
H     0.053000000     0.138000000     2.413000000
C    -1.738000000    -0.942000000     1.661000000
H    -2.097000000    -1.094000000     2.676000000
C    -2.422000000    -1.324000000     0.470000000
C    -3.688000000    -2.109000000     0.534000000
O    -4.147000000    -2.328000000     1.645000000
O    -4.281000000    -2.424000000    -0.477000000
O    -2.843000000    -4.600000000    -1.385000000
H    -1.939000000    -4.316000000    -1.519000000
H    -3.372000000    -3.847000000    -1.647000000
O    -6.838000000    -0.454000000    -3.159000000
H    -7.355000000     0.325000000    -3.364000000
H    -6.673000000    -0.391000000    -2.218000000
O    -6.321000000    -8.180000000     0.338000000
H    -5.468000000    -7.830000000     0.080000000
H    -6.733000000    -7.468000000     0.827000000
O    -4.432000000    -5.195000000     5.342000000
H    -5.025000000    -4.630000000     4.847000000
H    -3.568000000    -5.023000000     4.968000000
O    -4.228000000    -6.186000000    -3.357000000
H    -3.772000000    -5.730000000    -2.650000000
H    -5.075000000    -6.425000000    -2.981000000
O    -6.309000000    -0.584000000    -0.409000000
H    -5.715000000    -1.312000000    -0.591000000
H    -6.370000000    -0.557000000     0.545000000
O    -8.974000000    -3.773000000     2.196000000
H    -9.179000000    -4.448000000     1.549000000
H    -8.117000000    -3.439000000     1.932000000
O    -3.803000000    -6.927000000     0.041000000
H    -3.025000000    -7.433000000    -0.194000000
H    -3.660000000    -6.068000000    -0.356000000
O    -2.863000000    -4.581000000     2.953000000
H    -3.429000000    -3.932000000     2.536000000
H    -1.977000000    -4.327000000     2.697000000
O    -6.838000000    -6.012000000     2.133000000
H    -7.786000000    -6.128000000     2.195000000
H    -6.728000000    -5.158000000     1.715000000
O    -5.845000000    -2.215000000     3.619000000
H    -5.217000000    -2.274000000     2.899000000
H    -5.813000000    -1.298000000     3.890000000
O    -9.329000000    -0.985000000     3.398000000
H    -9.362000000    -1.747000000     2.819000000
H    -9.700000000    -0.273000000     2.877000000
O    -6.888000000    -7.394000000    -2.276000000
H    -6.723000000    -7.885000000    -1.471000000
H    -7.199000000    -6.540000000    -1.977000000
O    -5.445000000    -7.493000000     3.995000000
H    -5.186000000    -6.725000000     4.504000000
H    -5.823000000    -7.133000000     3.193000000
O    -2.864000000    -7.842000000     2.795000000
H    -3.349000000    -7.682000000     1.985000000
H    -2.735000000    -6.972000000     3.173000000
O    -6.554000000    -4.001000000    -0.254000000
H    -5.915000000    -3.331000000    -0.010000000
H    -6.489000000    -4.058000000    -1.208000000
O    -7.139000000    -4.175000000     4.991000000
H    -6.885000000    -3.377000000     4.526000000
H    -7.889000000    -4.509000000     4.499000000
O    -5.467000000    -3.042000000    -2.892000000
H    -5.111000000    -2.557000000    -2.148000000
H    -6.149000000    -2.472000000    -3.246000000
O    -5.347000000    -4.232000000    -5.766000000
H    -5.199000000    -4.512000000    -4.863000000
H    -6.082000000    -3.621000000    -5.710000000
