215
-1441.66394
C    -3.310000000     3.294000000     2.699000000
H    -3.197000000     4.164000000     2.058000000
C    -2.273000000     2.489000000     3.155000000
C    -2.464000000     1.361000000     3.866000000
H    -1.620000000     0.839000000     4.309000000
C    -0.821000000     2.823000000     2.766000000
O    -0.703000000     4.189000000     2.248000000
H    -0.489000000     2.042000000     2.066000000
O    -0.008000000     2.758000000     3.963000000
C     1.209000000     2.181000000     3.806000000
C     1.364000000     0.899000000     4.224000000
H     0.468000000     0.417000000     4.607000000
C     2.585000000     0.155000000     4.080000000
O     2.579000000    -1.169000000     4.396000000
C     3.615000000     0.745000000     3.362000000
C     4.857000000     0.012000000     2.884000000
H     5.705000000     0.699000000     2.847000000
C     4.752000000    -0.673000000     1.542000000
C     5.105000000    -0.030000000     0.373000000
H     5.529000000     0.970000000     0.333000000
H     5.065000000    -0.783000000     3.604000000
C     3.514000000     2.039000000     2.919000000
H     4.374000000     2.485000000     2.426000000
C     2.318000000     2.799000000     3.194000000
C     2.188000000     4.265000000     2.723000000
H     3.197000000     4.653000000     2.567000000
H     1.633000000     4.859000000     3.452000000
C     1.574000000     4.388000000     1.406000000
C     2.365000000     4.499000000     0.262000000
H     3.444000000     4.453000000     0.384000000
C     0.168000000     4.361000000     1.248000000
C    -0.449000000     4.432000000     0.008000000
H    -1.532000000     4.420000000    -0.076000000
C     0.309000000     4.458000000    -1.129000000
O    -0.443000000     4.296000000    -2.281000000
C    -0.367000000     2.993000000    -2.886000000
C    -1.734000000     2.497000000    -3.349000000
C    -1.928000000     1.859000000    -4.594000000
H    -1.107000000     1.832000000    -5.305000000
C    -2.792000000     2.651000000    -2.502000000
H    -2.634000000     3.097000000    -1.524000000
O     0.617000000     2.875000000    -3.926000000
H    -0.090000000     2.316000000    -2.065000000
C     1.727000000     4.451000000    -1.015000000
C     2.614000000     4.444000000    -2.282000000
H     3.597000000     4.823000000    -1.993000000
H     2.204000000     5.067000000    -3.081000000
C     2.773000000     3.036000000    -2.827000000
C     3.877000000     2.379000000    -2.427000000
H     4.597000000     2.979000000    -1.878000000
C     1.816000000     2.408000000    -3.631000000
C     2.003000000     1.125000000    -4.090000000
H     1.317000000     0.729000000    -4.834000000
C     3.123000000     0.402000000    -3.587000000
O     3.143000000    -1.049000000    -3.798000000
C     2.490000000    -1.758000000    -2.735000000
C     1.464000000    -2.730000000    -3.222000000
C     0.845000000    -2.602000000    -4.512000000
H     1.266000000    -1.917000000    -5.243000000
C     0.931000000    -3.613000000    -2.235000000
H     1.380000000    -3.787000000    -1.261000000
O     3.619000000    -2.411000000    -2.087000000
H     2.029000000    -1.077000000    -2.004000000
C     4.017000000     0.969000000    -2.741000000
C     5.201000000     0.213000000    -2.135000000
H     6.041000000     0.874000000    -1.912000000
H     5.593000000    -0.500000000    -2.862000000
C     4.770000000    -0.570000000    -0.904000000
C     4.167000000    -1.818000000    -0.954000000
C     3.911000000    -2.486000000     0.184000000
H     3.459000000    -3.473000000     0.130000000
C     4.180000000    -1.962000000     1.469000000
O     3.582000000    -2.441000000     2.616000000
C     2.344000000    -1.964000000     3.168000000
H     1.736000000    -1.335000000     2.502000000
C     1.402000000    -3.115000000     3.472000000
C     0.428000000    -3.016000000     4.469000000
H     0.259000000    -2.084000000     5.003000000
C     1.512000000    -4.352000000     2.829000000
H     2.271000000    -4.499000000     2.066000000
C     0.647000000    -5.385000000     3.153000000
O     0.884000000    -6.626000000     2.597000000
C    -0.351000000    -5.243000000     4.099000000
H    -1.143000000    -5.954000000     4.318000000
C    -0.378000000    -4.074000000     4.843000000
O    -1.362000000    -4.003000000     5.805000000
C    -1.849000000    -2.785000000     6.240000000
C    -2.688000000    -1.976000000     5.445000000
H    -3.021000000    -2.386000000     4.494000000
C    -1.567000000    -2.312000000     7.529000000
H    -1.006000000    -2.836000000     8.298000000
C    -1.917000000    -1.063000000     7.926000000
H    -1.668000000    -0.701000000     8.920000000
C    -2.749000000    -0.250000000     7.105000000
H    -3.156000000     0.714000000     7.399000000
C    -3.129000000    -0.703000000     5.847000000
O    -4.109000000    -0.062000000     5.072000000
C    -3.795000000     0.997000000     4.205000000
C    -4.867000000     1.842000000     3.764000000
H    -5.878000000     1.610000000     4.087000000
C    -4.619000000     2.972000000     3.064000000
O    -5.714000000     3.653000000     2.516000000
C    -5.648000000     4.013000000     1.157000000
C    -5.462000000     3.002000000     0.173000000
H    -5.304000000     1.986000000     0.527000000
C    -5.842000000     5.357000000     0.736000000
H    -6.167000000     6.061000000     1.498000000
C    -5.720000000     5.630000000    -0.611000000
H    -5.815000000     6.653000000    -0.967000000
C    -5.495000000     4.627000000    -1.571000000
H    -5.534000000     4.941000000    -2.611000000
C    -5.239000000     3.323000000    -1.157000000
O    -5.098000000     2.365000000    -2.060000000
C    -4.035000000     2.257000000    -2.890000000
C    -4.221000000     1.588000000    -4.080000000
H    -5.237000000     1.365000000    -4.395000000
C    -3.195000000     1.475000000    -4.976000000
O    -3.339000000     0.979000000    -6.244000000
C    -2.603000000     0.017000000    -6.743000000
C    -2.184000000    -1.102000000    -5.965000000
H    -2.491000000    -1.210000000    -4.928000000
C    -2.308000000     0.018000000    -8.083000000
H    -2.761000000     0.832000000    -8.643000000
C    -1.551000000    -0.931000000    -8.673000000
H    -1.304000000    -0.897000000    -9.731000000
C    -1.053000000    -1.999000000    -7.939000000
H    -0.523000000    -2.844000000    -8.371000000
C    -1.373000000    -2.078000000    -6.614000000
O    -1.003000000    -3.186000000    -5.928000000
C    -0.255000000    -3.350000000    -4.777000000
C    -0.645000000    -4.380000000    -3.817000000
H    -1.396000000    -5.141000000    -4.011000000
C    -0.084000000    -4.462000000    -2.574000000
O    -0.565000000    -5.550000000    -1.790000000
C     0.244000000    -6.246000000    -0.977000000
C     1.419000000    -6.773000000    -1.520000000
H     1.601000000    -6.725000000    -2.591000000
C     2.421000000    -7.302000000    -0.676000000
H     3.339000000    -7.691000000    -1.107000000
C     2.207000000    -7.242000000     0.704000000
H     3.028000000    -7.481000000     1.375000000
C     1.040000000    -6.697000000     1.173000000
C     0.044000000    -6.203000000     0.407000000
H    -0.787000000    -5.617000000     0.793000000
C    -1.900000000    -1.739000000    -0.640000000
H    -2.357000000    -2.104000000    -1.557000000
C    -0.901000000    -0.805000000    -0.887000000
H    -0.495000000    -0.436000000    -1.825000000
C    -0.191000000    -0.307000000     0.191000000
H     0.589000000     0.416000000     0.057000000
C    -0.485000000    -0.666000000     1.468000000
H     0.031000000    -0.273000000     2.340000000
C    -1.512000000    -1.620000000     1.705000000
H    -1.740000000    -1.867000000     2.739000000
C    -2.226000000    -2.198000000     0.629000000
C    -3.414000000    -3.172000000     0.845000000
O    -4.019000000    -3.131000000     1.934000000
O    -3.934000000    -3.686000000    -0.082000000
O    -2.681000000    -8.157000000    -2.588000000
H    -2.771000000    -8.240000000    -1.638000000
H    -2.767000000    -9.053000000    -2.915000000
O    -8.773000000    -4.072000000     0.015000000
H    -7.918000000    -4.233000000     0.415000000
H    -8.709000000    -3.185000000    -0.339000000
O    -0.884000000    -9.617000000     2.004000000
H    -1.523000000    -8.905000000     2.027000000
H    -0.820000000    -9.852000000     1.079000000
O    -6.256000000    -4.825000000     0.771000000
H    -5.501000000    -4.314000000     1.062000000
H    -6.032000000    -5.098000000    -0.119000000
O    -5.921000000    -7.548000000    -1.307000000
H    -6.495000000    -8.311000000    -1.236000000
H    -6.303000000    -7.025000000    -2.012000000
O    -7.391000000     0.123000000    -0.701000000
H    -6.716000000    -0.555000000    -0.740000000
H    -7.966000000    -0.152000000     0.013000000
O    -5.370000000    -1.625000000    -0.826000000
H    -4.609000000    -1.045000000    -0.789000000
H    -5.042000000    -2.470000000    -0.519000000
O    -5.061000000    -4.320000000     4.380000000
H    -4.661000000    -4.020000000     3.563000000
H    -5.383000000    -3.521000000     4.797000000
O    -7.409000000    -6.093000000     5.045000000
H    -7.328000000    -5.869000000     5.972000000
H    -6.766000000    -5.536000000     4.606000000
O    -5.845000000    -1.213000000     2.486000000
H    -5.244000000    -1.845000000     2.092000000
H    -5.277000000    -0.601000000     2.953000000
O    -8.404000000    -0.844000000     3.088000000
H    -7.475000000    -1.033000000     2.958000000
H    -8.851000000    -1.647000000     2.819000000
O    -5.619000000    -7.162000000     2.109000000
H    -5.807000000    -7.455000000     1.218000000
H    -5.768000000    -6.217000000     2.087000000
O    -3.650000000    -7.162000000     4.669000000
H    -4.386000000    -7.445000000     5.212000000
H    -3.988000000    -6.412000000     4.180000000
O    -4.110000000    -6.301000000    -3.987000000
H    -4.223000000    -5.500000000    -3.476000000
H    -3.777000000    -6.942000000    -3.359000000
O    -7.722000000    -3.332000000    -3.844000000
H    -8.029000000    -3.191000000    -4.740000000
H    -7.603000000    -2.450000000    -3.491000000
O    -6.363000000    -8.714000000     4.247000000
H    -5.941000000    -8.249000000     3.524000000
H    -7.054000000    -8.122000000     4.542000000
O    -2.585000000    -7.698000000     2.240000000
H    -3.184000000    -7.428000000     2.937000000
H    -2.988000000    -7.367000000     1.437000000
O    -3.589000000    -6.397000000     0.045000000
H    -3.470000000    -5.447000000     0.028000000
H    -4.338000000    -6.555000000    -0.530000000
O    -5.365000000    -4.391000000    -2.275000000
H    -4.730000000    -4.144000000    -1.602000000
H    -5.859000000    -3.588000000    -2.445000000
