215
-1444.78518
C    -3.370000000     2.845000000     2.101000000
H    -3.023000000     3.209000000     1.137000000
C    -2.449000000     2.640000000     3.159000000
C    -2.842000000     2.072000000     4.324000000
H    -2.093000000     1.809000000     5.066000000
C    -0.985000000     2.824000000     2.824000000
O    -0.861000000     4.179000000     2.334000000
H    -0.611000000     2.057000000     2.131000000
O    -0.051000000     2.845000000     3.991000000
C     1.206000000     2.334000000     3.758000000
C     1.366000000     1.090000000     4.331000000
H     0.646000000     0.592000000     4.975000000
C     2.519000000     0.437000000     3.931000000
O     2.512000000    -0.940000000     4.294000000
C     3.499000000     1.065000000     3.190000000
C     4.772000000     0.272000000     2.873000000
H     5.656000000     0.912000000     2.913000000
C     4.659000000    -0.483000000     1.559000000
C     5.049000000     0.122000000     0.420000000
H     5.611000000     1.052000000     0.389000000
H     4.986000000    -0.467000000     3.648000000
C     3.353000000     2.342000000     2.787000000
H     4.153000000     2.844000000     2.248000000
C     2.181000000     3.049000000     3.140000000
C     1.995000000     4.502000000     2.705000000
H     2.974000000     4.983000000     2.652000000
H     1.451000000     5.042000000     3.483000000
C     1.352000000     4.530000000     1.315000000
C     2.144000000     4.564000000     0.136000000
H     3.220000000     4.667000000     0.254000000
C    -0.059000000     4.412000000     1.232000000
C    -0.615000000     4.496000000    -0.045000000
H    -1.697000000     4.463000000    -0.138000000
C     0.222000000     4.448000000    -1.196000000
O    -0.439000000     4.383000000    -2.401000000
C    -0.365000000     3.082000000    -3.081000000
C    -1.732000000     2.688000000    -3.662000000
C    -1.923000000     1.406000000    -4.161000000
H    -1.131000000     0.664000000    -4.109000000
C    -2.869000000     3.512000000    -3.520000000
H    -2.823000000     4.446000000    -2.967000000
O     0.697000000     2.952000000    -4.045000000
H    -0.154000000     2.397000000    -2.246000000
C     1.632000000     4.457000000    -1.131000000
C     2.507000000     4.379000000    -2.325000000
H     3.467000000     4.897000000    -2.275000000
H     2.031000000     4.955000000    -3.122000000
C     2.709000000     2.959000000    -2.758000000
C     3.828000000     2.260000000    -2.251000000
H     4.478000000     2.835000000    -1.596000000
C     1.837000000     2.315000000    -3.631000000
C     2.020000000     1.034000000    -4.025000000
H     1.205000000     0.532000000    -4.540000000
C     3.101000000     0.323000000    -3.427000000
O     3.171000000    -1.038000000    -3.686000000
C     2.715000000    -1.920000000    -2.683000000
C     1.808000000    -3.071000000    -3.229000000
C     1.185000000    -3.031000000    -4.476000000
H     1.310000000    -2.229000000    -5.199000000
C     1.636000000    -4.216000000    -2.454000000
H     2.140000000    -4.305000000    -1.496000000
O     3.802000000    -2.421000000    -1.917000000
H     2.090000000    -1.331000000    -1.995000000
C     4.088000000     0.926000000    -2.637000000
C     5.194000000     0.101000000    -2.124000000
H     6.096000000     0.695000000    -1.965000000
H     5.574000000    -0.665000000    -2.804000000
C     4.821000000    -0.556000000    -0.804000000
C     4.188000000    -1.804000000    -0.754000000
C     3.898000000    -2.410000000     0.396000000
H     3.451000000    -3.400000000     0.442000000
C     4.089000000    -1.744000000     1.545000000
O     3.616000000    -2.387000000     2.612000000
C     2.307000000    -1.930000000     3.191000000
H     1.890000000    -1.347000000     2.357000000
C     1.234000000    -2.986000000     3.561000000
C     0.199000000    -2.636000000     4.439000000
H     0.004000000    -1.640000000     4.828000000
C     1.311000000    -4.235000000     2.976000000
H     2.189000000    -4.419000000     2.362000000
C     0.278000000    -5.158000000     3.148000000
O     0.283000000    -6.413000000     2.595000000
C    -0.781000000    -4.814000000     4.041000000
H    -1.716000000    -5.364000000     4.120000000
C    -0.844000000    -3.530000000     4.632000000
O    -1.927000000    -3.187000000     5.361000000
C    -2.250000000    -1.974000000     5.945000000
C    -3.289000000    -1.172000000     5.416000000
H    -3.673000000    -1.367000000     4.418000000
C    -1.608000000    -1.640000000     7.121000000
H    -0.942000000    -2.348000000     7.609000000
C    -1.999000000    -0.514000000     7.833000000
H    -1.486000000    -0.345000000     8.776000000
C    -3.089000000     0.267000000     7.367000000
H    -3.391000000     1.160000000     7.907000000
C    -3.663000000    -0.051000000     6.110000000
O    -4.494000000     0.891000000     5.505000000
C    -4.193000000     1.617000000     4.416000000
C    -5.099000000     1.817000000     3.381000000
H    -6.076000000     1.366000000     3.535000000
C    -4.662000000     2.500000000     2.203000000
O    -5.549000000     2.573000000     1.180000000
C    -5.538000000     3.585000000     0.276000000
C    -5.603000000     3.271000000    -1.075000000
H    -5.591000000     2.213000000    -1.322000000
C    -5.577000000     4.902000000     0.623000000
H    -5.633000000     5.197000000     1.667000000
C    -5.443000000     5.844000000    -0.371000000
H    -5.501000000     6.906000000    -0.144000000
C    -5.306000000     5.484000000    -1.671000000
H    -5.149000000     6.263000000    -2.412000000
C    -5.336000000     4.190000000    -2.062000000
O    -5.212000000     3.724000000    -3.387000000
C    -4.106000000     3.091000000    -3.885000000
C    -4.284000000     1.736000000    -4.388000000
H    -5.257000000     1.302000000    -4.603000000
C    -3.208000000     0.961000000    -4.587000000
O    -3.394000000    -0.345000000    -4.983000000
C    -2.590000000    -0.999000000    -5.859000000
C    -1.718000000    -1.984000000    -5.487000000
H    -1.758000000    -2.395000000    -4.482000000
C    -2.760000000    -0.654000000    -7.219000000
H    -3.430000000     0.136000000    -7.550000000
C    -1.988000000    -1.363000000    -8.176000000
H    -2.107000000    -1.044000000    -9.208000000
C    -1.007000000    -2.332000000    -7.770000000
H    -0.494000000    -2.894000000    -8.546000000
C    -0.891000000    -2.715000000    -6.434000000
O    -0.369000000    -3.921000000    -6.066000000
C     0.358000000    -4.048000000    -4.841000000
C     0.166000000    -5.146000000    -4.079000000
H    -0.479000000    -5.929000000    -4.468000000
C     0.832000000    -5.268000000    -2.892000000
O     0.663000000    -6.473000000    -2.122000000
C     1.250000000    -6.737000000    -0.892000000
C     2.357000000    -7.558000000    -0.800000000
H     2.787000000    -7.882000000    -1.745000000
C     2.816000000    -7.970000000     0.472000000
H     3.724000000    -8.569000000     0.470000000
C     2.199000000    -7.408000000     1.611000000
H     2.575000000    -7.752000000     2.571000000
C     1.047000000    -6.679000000     1.522000000
C     0.560000000    -6.415000000     0.270000000
H    -0.430000000    -5.969000000     0.224000000
C    -1.741000000    -1.080000000    -1.141000000
H    -2.135000000    -1.401000000    -2.102000000
C    -0.500000000    -0.394000000    -1.079000000
H     0.061000000    -0.175000000    -1.985000000
C     0.038000000    -0.038000000     0.151000000
H     0.966000000     0.560000000     0.182000000
C    -0.592000000    -0.489000000     1.291000000
H    -0.239000000    -0.226000000     2.284000000
C    -1.811000000    -1.131000000     1.263000000
H    -2.323000000    -1.382000000     2.188000000
C    -2.427000000    -1.395000000     0.059000000
C    -3.819000000    -2.003000000    -0.056000000
O    -4.464000000    -2.237000000     0.942000000
O    -4.232000000    -2.359000000    -1.127000000
O    -1.861000000    -7.132000000    -2.825000000
H    -1.316000000    -6.766000000    -2.128000000
H    -2.585000000    -7.556000000    -2.365000000
O    -8.633000000    -5.277000000    -0.961000000
H    -8.003000000    -4.569000000    -1.098000000
H    -8.381000000    -5.948000000    -1.595000000
O    -6.256000000    -4.358000000     4.462000000
H    -6.319000000    -3.490000000     4.860000000
H    -7.091000000    -4.777000000     4.667000000
O    -6.921000000    -2.744000000    -0.781000000
H    -5.984000000    -2.816000000    -0.602000000
H    -7.013000000    -3.026000000    -1.691000000
O    -5.011000000    -6.275000000    -1.522000000
H    -5.602000000    -6.701000000    -2.143000000
H    -4.646000000    -5.535000000    -2.007000000
O    -8.252000000     0.401000000    -2.424000000
H    -7.647000000    -0.338000000    -2.493000000
H    -7.863000000     0.967000000    -1.756000000
O    -5.649000000    -0.757000000    -2.857000000
H    -5.202000000     0.045000000    -3.128000000
H    -5.038000000    -1.179000000    -2.253000000
O    -5.042000000    -4.582000000     1.867000000
H    -4.934000000    -3.701000000     1.509000000
H    -5.545000000    -4.453000000     2.672000000
O    -6.650000000    -0.559000000     0.891000000
H    -6.904000000    -1.240000000     0.268000000
H    -5.798000000    -0.845000000     1.224000000
O    -8.821000000    -0.149000000     2.709000000
H    -7.968000000    -0.096000000     2.278000000
H    -9.143000000    -1.024000000     2.495000000
O    -5.345000000    -7.213000000     1.174000000
H    -5.210000000    -7.352000000     0.237000000
H    -5.769000000    -6.356000000     1.231000000
O    -3.647000000    -6.675000000     3.635000000
H    -3.917000000    -7.347000000     3.010000000
H    -3.874000000    -5.848000000     3.211000000
O    -8.154000000     1.561000000     0.135000000
H    -8.639000000     1.010000000     0.748000000
H    -7.252000000     1.244000000     0.190000000
O    -7.175000000    -3.437000000    -3.383000000
H    -7.204000000    -3.984000000    -4.168000000
H    -8.010000000    -2.970000000    -3.385000000
O    -6.654000000    -1.114000000    -5.522000000
H    -6.153000000    -1.795000000    -5.971000000
H    -6.306000000    -1.109000000    -4.631000000
O    -2.240000000    -7.651000000     1.053000000
H    -1.411000000    -7.633000000     1.533000000
H    -2.525000000    -6.738000000     1.033000000
O    -3.023000000    -5.239000000     0.265000000
H    -3.468000000    -4.539000000     0.742000000
H    -3.720000000    -5.676000000    -0.225000000
O    -9.344000000    -1.935000000     0.615000000
H    -8.557000000    -2.419000000     0.364000000
H    -9.699000000    -1.610000000    -0.212000000
O    -4.207000000    -4.238000000    -2.942000000
H    -4.297000000    -3.611000000    -2.224000000
H    -5.061000000    -4.232000000    -3.373000000
