215
-1433.63970
C    -2.631000000     2.454000000     3.711000000
H    -2.692000000     3.170000000     2.895000000
C    -1.423000000     2.043000000     4.260000000
C    -1.398000000     1.062000000     5.210000000
H    -0.467000000     0.647000000     5.587000000
C    -0.180000000     2.548000000     3.608000000
O    -0.407000000     3.882000000     3.173000000
H    -0.055000000     1.948000000     2.694000000
O     1.076000000     2.398000000     4.371000000
C     2.203000000     1.954000000     3.676000000
C     2.512000000     0.593000000     3.774000000
H     1.825000000    -0.105000000     4.245000000
C     3.532000000     0.083000000     3.025000000
O     3.645000000    -1.259000000     3.112000000
C     4.360000000     0.862000000     2.242000000
C     5.501000000     0.311000000     1.450000000
H     6.225000000     1.118000000     1.316000000
C     5.049000000    -0.313000000     0.131000000
C     4.774000000     0.528000000    -1.011000000
H     5.059000000     1.576000000    -0.961000000
H     6.057000000    -0.359000000     2.109000000
C     4.111000000     2.268000000     2.187000000
H     4.819000000     2.924000000     1.688000000
C     2.939000000     2.807000000     2.798000000
C     2.555000000     4.284000000     2.699000000
H     3.393000000     4.914000000     2.394000000
H     2.271000000     4.427000000     3.743000000
C     1.423000000     4.604000000     1.717000000
C     1.798000000     4.975000000     0.406000000
H     2.826000000     5.056000000     0.065000000
C     0.073000000     4.440000000     2.018000000
C    -0.892000000     4.661000000     1.040000000
H    -1.939000000     4.584000000     1.322000000
C    -0.485000000     4.704000000    -0.306000000
O    -1.486000000     4.609000000    -1.297000000
C    -1.640000000     3.336000000    -1.898000000
C    -3.132000000     2.884000000    -2.151000000
C    -3.340000000     1.950000000    -3.135000000
H    -2.534000000     1.672000000    -3.809000000
C    -4.219000000     3.251000000    -1.349000000
H    -4.118000000     3.962000000    -0.533000000
O    -0.944000000     3.411000000    -3.147000000
H    -1.141000000     2.569000000    -1.289000000
C     0.851000000     4.842000000    -0.605000000
C     1.327000000     4.880000000    -2.021000000
H     2.231000000     5.453000000    -2.235000000
H     0.626000000     5.568000000    -2.497000000
C     1.465000000     3.633000000    -2.772000000
C     2.769000000     3.098000000    -3.010000000
H     3.630000000     3.637000000    -2.622000000
C     0.338000000     2.929000000    -3.250000000
C     0.549000000     1.714000000    -3.894000000
H    -0.335000000     1.178000000    -4.231000000
C     1.773000000     1.097000000    -3.997000000
O     1.812000000    -0.203000000    -4.386000000
C     1.938000000    -1.352000000    -3.537000000
C     1.005000000    -2.443000000    -3.995000000
C    -0.063000000    -2.137000000    -4.857000000
H    -0.106000000    -1.130000000    -5.265000000
C     1.173000000    -3.756000000    -3.475000000
H     1.982000000    -3.981000000    -2.785000000
O     3.256000000    -1.812000000    -3.421000000
H     1.655000000    -1.213000000    -2.484000000
C     2.903000000     1.757000000    -3.438000000
C     4.256000000     0.908000000    -3.422000000
H     5.146000000     1.540000000    -3.395000000
H     4.318000000     0.341000000    -4.353000000
C     4.217000000     0.061000000    -2.172000000
C     3.988000000    -1.300000000    -2.348000000
C     4.125000000    -2.111000000    -1.175000000
H     3.713000000    -3.112000000    -1.073000000
C     4.591000000    -1.634000000     0.032000000
O     4.466000000    -2.365000000     1.184000000
C     3.321000000    -2.033000000     1.986000000
H     2.631000000    -1.421000000     1.386000000
C     2.471000000    -3.273000000     2.300000000
C     1.462000000    -3.181000000     3.243000000
H     1.252000000    -2.292000000     3.832000000
C     2.643000000    -4.461000000     1.543000000
H     3.509000000    -4.568000000     0.895000000
C     1.738000000    -5.541000000     1.751000000
O     1.997000000    -6.741000000     1.197000000
C     0.809000000    -5.385000000     2.697000000
H     0.232000000    -6.288000000     2.881000000
C     0.615000000    -4.243000000     3.446000000
O    -0.506000000    -4.213000000     4.198000000
C    -0.656000000    -3.389000000     5.321000000
C    -1.597000000    -2.347000000     5.428000000
H    -2.233000000    -2.128000000     4.574000000
C     0.124000000    -3.639000000     6.399000000
H     0.831000000    -4.464000000     6.378000000
C     0.047000000    -2.877000000     7.563000000
H     0.771000000    -3.142000000     8.329000000
C    -0.908000000    -1.831000000     7.652000000
H    -0.880000000    -1.184000000     8.526000000
C    -1.685000000    -1.568000000     6.557000000
O    -2.490000000    -0.478000000     6.603000000
C    -2.601000000     0.544000000     5.630000000
C    -3.797000000     0.996000000     5.195000000
H    -4.685000000     0.636000000     5.708000000
C    -3.864000000     1.883000000     4.163000000
O    -5.145000000     2.388000000     3.828000000
C    -5.410000000     3.265000000     2.769000000
C    -5.750000000     2.680000000     1.563000000
H    -5.831000000     1.600000000     1.463000000
C    -5.430000000     4.572000000     3.010000000
H    -5.214000000     4.968000000     3.999000000
C    -5.958000000     5.367000000     1.945000000
H    -6.050000000     6.441000000     2.089000000
C    -6.376000000     4.810000000     0.761000000
H    -6.802000000     5.407000000    -0.042000000
C    -6.227000000     3.438000000     0.537000000
O    -6.531000000     2.941000000    -0.711000000
C    -5.482000000     2.674000000    -1.497000000
C    -5.670000000     1.775000000    -2.535000000
H    -6.636000000     1.284000000    -2.620000000
C    -4.618000000     1.439000000    -3.368000000
O    -4.838000000     0.638000000    -4.479000000
C    -3.880000000     0.270000000    -5.397000000
C    -3.226000000    -0.963000000    -5.207000000
H    -3.521000000    -1.555000000    -4.344000000
C    -3.508000000     1.016000000    -6.480000000
H    -3.902000000     2.029000000    -6.464000000
C    -2.511000000     0.554000000    -7.417000000
H    -2.205000000     1.119000000    -8.294000000
C    -2.088000000    -0.762000000    -7.326000000
H    -1.390000000    -1.103000000    -8.086000000
C    -2.462000000    -1.511000000    -6.228000000
O    -1.998000000    -2.825000000    -6.060000000
C    -0.977000000    -3.106000000    -5.136000000
C    -0.904000000    -4.337000000    -4.529000000
H    -1.655000000    -5.096000000    -4.730000000
C     0.184000000    -4.667000000    -3.739000000
O     0.087000000    -5.880000000    -3.118000000
C     1.102000000    -6.456000000    -2.308000000
C     1.982000000    -7.402000000    -2.842000000
H     1.957000000    -7.604000000    -3.909000000
C     2.754000000    -8.174000000    -2.047000000
H     3.380000000    -8.949000000    -2.482000000
C     2.839000000    -7.903000000    -0.703000000
H     3.441000000    -8.476000000    -0.002000000
C     1.987000000    -6.944000000    -0.184000000
C     1.088000000    -6.280000000    -0.935000000
H     0.355000000    -5.622000000    -0.475000000
C    -1.857000000    -2.233000000    -1.640000000
H    -2.303000000    -2.459000000    -2.605000000
C    -1.092000000    -1.032000000    -1.481000000
H    -1.082000000    -0.326000000    -2.307000000
C    -0.511000000    -0.781000000    -0.284000000
H     0.001000000     0.161000000    -0.090000000
C    -0.708000000    -1.658000000     0.808000000
H    -0.375000000    -1.396000000     1.809000000
C    -1.298000000    -2.952000000     0.592000000
H    -1.528000000    -3.556000000     1.467000000
C    -1.926000000    -3.173000000    -0.646000000
C    -2.690000000    -4.424000000    -0.901000000
O    -2.573000000    -5.251000000    -0.059000000
O    -3.499000000    -4.485000000    -1.802000000
O    -2.563000000    -7.374000000    -1.566000000
H    -1.739000000    -7.798000000    -1.327000000
H    -2.682000000    -6.692000000    -0.906000000
O    -6.061000000    -4.997000000    -1.470000000
H    -5.111000000    -4.876000000    -1.454000000
H    -6.378000000    -4.320000000    -2.068000000
O    -5.419000000    -1.944000000     2.128000000
H    -5.022000000    -2.789000000     2.340000000
H    -4.860000000    -1.584000000     1.439000000
O    -0.681000000    -9.586000000     0.725000000
H    -1.068000000    -8.767000000     1.034000000
H     0.149000000    -9.652000000     1.198000000
O    -5.376000000    -2.739000000    -3.360000000
H    -4.624000000    -3.231000000    -3.028000000
H    -5.404000000    -2.946000000    -4.294000000
O    -8.124000000    -3.162000000     0.805000000
H    -8.127000000    -2.775000000     1.681000000
H    -7.283000000    -2.901000000     0.431000000
O    -3.112000000    -6.725000000    -6.511000000
H    -3.697000000    -7.424000000    -6.805000000
H    -3.399000000    -6.532000000    -5.619000000
O    -3.897000000    -7.626000000     3.725000000
H    -4.563000000    -6.939000000     3.757000000
H    -4.355000000    -8.418000000     4.003000000
O    -5.158000000    -3.730000000    -5.739000000
H    -4.503000000    -4.403000000    -5.554000000
H    -4.812000000    -3.261000000    -6.498000000
O    -4.009000000    -0.706000000    -0.300000000
H    -3.064000000    -0.583000000    -0.211000000
H    -4.193000000    -0.494000000    -1.215000000
O    -7.546000000    -7.257000000    -2.203000000
H    -8.381000000    -7.111000000    -1.758000000
H    -7.070000000    -6.434000000    -2.094000000
O    -6.577000000    -2.060000000    -1.071000000
H    -6.105000000    -2.200000000    -1.892000000
H    -5.929000000    -1.667000000    -0.486000000
O    -6.499000000    -7.477000000     1.156000000
H    -7.158000000    -7.237000000     0.504000000
H    -6.836000000    -7.119000000     1.978000000
O    -4.555000000    -9.896000000     0.766000000
H    -4.050000000    -9.705000000     1.557000000
H    -5.183000000    -9.177000000     0.704000000
O    -3.835000000    -3.943000000     3.758000000
H    -4.094000000    -4.264000000     2.894000000
H    -3.106000000    -4.509000000     4.015000000
O    -3.892000000    -6.079000000    -3.914000000
H    -4.201000000    -5.464000000    -3.250000000
H    -3.104000000    -6.467000000    -3.533000000
O    -4.597000000    -5.115000000     1.411000000
H    -5.102000000    -5.808000000     0.986000000
H    -3.770000000    -5.091000000     0.928000000
O    -2.176000000    -7.517000000     1.682000000
H    -2.546000000    -6.719000000     1.305000000
H    -2.753000000    -7.724000000     2.417000000
O    -4.489000000    -8.835000000    -2.596000000
H    -3.728000000    -8.359000000    -2.263000000
H    -4.969000000    -8.189000000    -3.113000000
