215
-1455.53902
C    -2.503000000     2.540000000     3.969000000
H    -2.541000000     3.571000000     3.626000000
C    -1.262000000     1.884000000     4.070000000
C    -1.150000000     0.647000000     4.782000000
H    -0.139000000     0.252000000     4.852000000
C    -0.055000000     2.491000000     3.395000000
O    -0.250000000     3.827000000     3.054000000
H     0.037000000     1.902000000     2.470000000
O     1.135000000     2.332000000     4.163000000
C     2.271000000     2.015000000     3.433000000
C     2.662000000     0.701000000     3.507000000
H     2.097000000     0.152000000     4.257000000
C     3.716000000     0.219000000     2.717000000
O     3.898000000    -1.126000000     2.722000000
C     4.467000000     1.128000000     1.913000000
C     5.516000000     0.644000000     0.972000000
H     6.260000000     1.415000000     0.761000000
C     4.933000000     0.107000000    -0.317000000
C     4.749000000     0.928000000    -1.435000000
H     4.949000000     1.985000000    -1.274000000
H     6.213000000    -0.075000000     1.406000000
C     4.148000000     2.464000000     1.939000000
H     4.819000000     3.084000000     1.351000000
C     2.980000000     2.895000000     2.574000000
C     2.551000000     4.343000000     2.366000000
H     3.392000000     4.964000000     2.050000000
H     2.190000000     4.705000000     3.331000000
C     1.413000000     4.500000000     1.394000000
C     1.689000000     4.794000000     0.065000000
H     2.739000000     4.843000000    -0.212000000
C     0.075000000     4.235000000     1.819000000
C    -0.953000000     4.358000000     0.906000000
H    -1.983000000     4.124000000     1.163000000
C    -0.727000000     4.818000000    -0.381000000
O    -1.771000000     4.748000000    -1.288000000
C    -1.910000000     3.397000000    -1.847000000
C    -3.308000000     2.806000000    -1.835000000
C    -3.499000000     1.595000000    -2.476000000
H    -2.663000000     1.160000000    -3.018000000
C    -4.332000000     3.337000000    -1.019000000
H    -4.147000000     4.264000000    -0.482000000
O    -1.350000000     3.293000000    -3.173000000
H    -1.190000000     2.805000000    -1.264000000
C     0.599000000     4.950000000    -0.836000000
C     0.862000000     5.152000000    -2.384000000
H     1.786000000     5.715000000    -2.532000000
H     0.038000000     5.736000000    -2.798000000
C     1.032000000     3.764000000    -3.004000000
C     2.344000000     3.247000000    -3.091000000
H     3.226000000     3.763000000    -2.721000000
C    -0.031000000     2.867000000    -3.313000000
C     0.111000000     1.633000000    -3.824000000
H    -0.785000000     1.158000000    -4.216000000
C     1.378000000     1.166000000    -4.093000000
O     1.465000000    -0.097000000    -4.617000000
C     1.721000000    -1.282000000    -3.798000000
C     1.005000000    -2.472000000    -4.379000000
C    -0.228000000    -2.277000000    -4.930000000
H    -0.600000000    -1.282000000    -5.160000000
C     1.431000000    -3.738000000    -4.128000000
H     2.388000000    -3.900000000    -3.638000000
O     3.173000000    -1.511000000    -3.744000000
H     1.467000000    -1.206000000    -2.730000000
C     2.493000000     1.927000000    -3.614000000
C     3.872000000     1.379000000    -3.719000000
H     4.540000000     2.233000000    -3.852000000
H     4.022000000     0.776000000    -4.617000000
C     4.151000000     0.438000000    -2.599000000
C     3.844000000    -0.953000000    -2.674000000
C     3.997000000    -1.792000000    -1.552000000
H     3.776000000    -2.856000000    -1.519000000
C     4.532000000    -1.224000000    -0.417000000
O     4.479000000    -2.039000000     0.721000000
C     3.376000000    -1.868000000     1.617000000
H     2.601000000    -1.284000000     1.097000000
C     2.730000000    -3.187000000     2.046000000
C     2.314000000    -3.304000000     3.338000000
H     2.582000000    -2.526000000     4.048000000
C     2.333000000    -4.237000000     1.126000000
H     2.514000000    -4.040000000     0.073000000
C     1.465000000    -5.266000000     1.470000000
O     1.184000000    -6.361000000     0.690000000
C     1.223000000    -5.404000000     2.847000000
H     0.773000000    -6.307000000     3.252000000
C     1.592000000    -4.429000000     3.691000000
O     1.221000000    -4.641000000     4.940000000
C     0.647000000    -3.663000000     5.771000000
C    -0.516000000    -2.946000000     5.307000000
H    -0.921000000    -3.078000000     4.307000000
C     1.142000000    -3.402000000     7.084000000
H     2.016000000    -3.918000000     7.473000000
C     0.562000000    -2.290000000     7.837000000
H     1.008000000    -2.046000000     8.797000000
C    -0.610000000    -1.724000000     7.404000000
H    -1.082000000    -0.993000000     8.055000000
C    -1.115000000    -1.998000000     6.134000000
O    -2.301000000    -1.297000000     5.713000000
C    -2.296000000    -0.028000000     5.118000000
C    -3.527000000     0.649000000     5.033000000
H    -4.386000000     0.060000000     5.342000000
C    -3.623000000     1.968000000     4.535000000
O    -4.857000000     2.592000000     4.458000000
C    -5.426000000     3.379000000     3.442000000
C    -5.530000000     2.846000000     2.096000000
H    -5.181000000     1.845000000     1.853000000
C    -6.068000000     4.581000000     3.787000000
H    -6.131000000     4.964000000     4.802000000
C    -6.898000000     5.190000000     2.873000000
H    -7.538000000     6.051000000     3.049000000
C    -7.025000000     4.695000000     1.607000000
H    -7.646000000     5.296000000     0.948000000
C    -6.274000000     3.589000000     1.181000000
O    -6.511000000     3.087000000    -0.075000000
C    -5.541000000     2.626000000    -0.933000000
C    -5.704000000     1.433000000    -1.703000000
H    -6.673000000     0.960000000    -1.835000000
C    -4.731000000     0.972000000    -2.488000000
O    -4.931000000    -0.223000000    -3.242000000
C    -4.170000000    -0.527000000    -4.354000000
C    -3.675000000    -1.766000000    -4.597000000
H    -3.844000000    -2.467000000    -3.783000000
C    -4.005000000     0.441000000    -5.327000000
H    -4.302000000     1.464000000    -5.114000000
C    -3.429000000     0.141000000    -6.575000000
H    -3.389000000     0.890000000    -7.362000000
C    -2.964000000    -1.129000000    -6.807000000
H    -2.617000000    -1.560000000    -7.743000000
C    -2.995000000    -2.034000000    -5.700000000
O    -2.269000000    -3.196000000    -5.831000000
C    -1.003000000    -3.357000000    -5.356000000
C    -0.562000000    -4.709000000    -5.145000000
H    -1.139000000    -5.586000000    -5.428000000
C     0.617000000    -4.872000000    -4.395000000
O     1.108000000    -6.141000000    -4.181000000
C     1.666000000    -6.507000000    -2.939000000
C     2.891000000    -7.160000000    -2.959000000
H     3.335000000    -7.572000000    -3.862000000
C     3.490000000    -7.604000000    -1.803000000
H     4.407000000    -8.187000000    -1.808000000
C     2.885000000    -7.379000000    -0.635000000
H     3.223000000    -7.816000000     0.301000000
C     1.786000000    -6.548000000    -0.534000000
C     1.181000000    -6.061000000    -1.684000000
H     0.322000000    -5.403000000    -1.581000000
C    -1.570000000    -1.832000000    -0.958000000
H    -1.965000000    -2.139000000    -1.924000000
C    -0.780000000    -0.703000000    -0.995000000
H    -0.644000000    -0.092000000    -1.884000000
C    -0.093000000    -0.267000000     0.151000000
H     0.522000000     0.718000000     0.233000000
C    -0.368000000    -0.908000000     1.321000000
H     0.199000000    -0.662000000     2.215000000
C    -1.068000000    -2.145000000     1.411000000
H    -1.102000000    -2.725000000     2.330000000
C    -1.691000000    -2.570000000     0.233000000
C    -2.357000000    -3.968000000     0.247000000
O    -2.321000000    -4.665000000     1.228000000
O    -2.863000000    -4.437000000    -0.730000000
O    -5.448000000    -4.744000000     1.515000000
H    -4.542000000    -5.015000000     1.663000000
H    -5.965000000    -5.530000000     1.693000000
O    -5.139000000    -4.286000000    -2.141000000
H    -4.330000000    -4.545000000    -1.698000000
H    -5.206000000    -4.883000000    -2.886000000
O    -5.922000000    -2.469000000     3.336000000
H    -5.971000000    -2.499000000     2.381000000
H    -6.328000000    -1.635000000     3.571000000
O    -0.789000000    -9.251000000     1.408000000
H     0.165000000    -9.298000000     1.348000000
H    -1.076000000   -10.164000000     1.407000000
O    -4.085000000    -0.192000000     0.919000000
H    -3.208000000    -0.091000000     0.550000000
H    -4.421000000    -0.996000000     0.522000000
O    -1.250000000    -7.927000000    -4.528000000
H    -1.666000000    -7.120000000    -4.225000000
H    -1.973000000    -8.546000000    -4.629000000
O    -7.912000000    -5.711000000    -2.133000000
H    -7.196000000    -5.091000000    -1.998000000
H    -7.704000000    -6.139000000    -2.963000000
O    -4.019000000   -10.044000000    -1.796000000
H    -4.653000000   -10.479000000    -1.226000000
H    -3.801000000    -9.233000000    -1.337000000
O    -7.297000000    -2.509000000    -1.780000000
H    -7.227000000    -1.797000000    -1.144000000
H    -6.442000000    -2.939000000    -1.753000000
O    -4.980000000    -2.447000000    -0.159000000
H    -4.630000000    -2.682000000    -1.018000000
H    -5.216000000    -3.284000000     0.241000000
O    -5.667000000    -4.540000000     5.147000000
H    -4.762000000    -4.716000000     4.891000000
H    -5.900000000    -3.743000000     4.671000000
O    -3.507000000    -7.334000000     4.105000000
H    -2.840000000    -8.000000000     3.933000000
H    -3.081000000    -6.506000000     3.882000000
O    -7.214000000    -6.862000000     1.997000000
H    -7.442000000    -7.737000000     1.683000000
H    -6.987000000    -6.990000000     2.918000000
O    -4.490000000    -8.556000000     1.855000000
H    -4.090000000    -8.260000000     1.037000000
H    -4.141000000    -7.964000000     2.520000000
O    -5.215000000    -7.455000000    -0.965000000
H    -5.854000000    -7.149000000    -0.321000000
H    -4.427000000    -6.944000000    -0.781000000
O    -3.033000000    -4.374000000     3.717000000
H    -2.615000000    -4.632000000     2.896000000
H    -3.396000000    -3.506000000     3.539000000
O    -2.492000000    -7.288000000     0.422000000
H    -1.704000000    -7.703000000     0.774000000
H    -2.379000000    -6.357000000     0.616000000
O    -7.138000000    -0.239000000     0.363000000
H    -7.166000000     0.439000000     1.038000000
H    -6.215000000    -0.291000000     0.114000000
O    -2.378000000    -6.372000000    -2.523000000
H    -2.219000000    -6.865000000    -1.717000000
H    -2.524000000    -5.473000000    -2.228000000
