215
-1448.72782
C    -2.363000000     1.728000000     4.180000000
H    -2.694000000     2.515000000     3.507000000
C    -0.981000000     1.502000000     4.165000000
C    -0.511000000     0.494000000     5.064000000
H     0.529000000     0.193000000     4.967000000
C     0.081000000     2.254000000     3.364000000
O    -0.278000000     3.641000000     3.195000000
H     0.144000000     1.746000000     2.391000000
O     1.382000000     2.219000000     4.003000000
C     2.463000000     2.033000000     3.211000000
C     3.032000000     0.740000000     3.312000000
H     2.675000000    -0.024000000     3.997000000
C     4.118000000     0.419000000     2.486000000
O     4.527000000    -0.972000000     2.363000000
C     4.577000000     1.306000000     1.524000000
C     5.559000000     0.874000000     0.482000000
H     6.216000000     1.662000000     0.109000000
C     4.849000000     0.282000000    -0.698000000
C     4.440000000     1.142000000    -1.723000000
H     4.761000000     2.181000000    -1.704000000
H     6.247000000     0.092000000     0.810000000
C     4.010000000     2.579000000     1.457000000
H     4.368000000     3.281000000     0.707000000
C     2.979000000     2.947000000     2.294000000
C     2.409000000     4.378000000     2.250000000
H     3.234000000     5.024000000     1.942000000
H     2.272000000     4.931000000     3.182000000
C     1.181000000     4.652000000     1.412000000
C     1.271000000     5.026000000     0.090000000
H     2.213000000     5.372000000    -0.327000000
C    -0.107000000     4.172000000     1.942000000
C    -1.255000000     4.175000000     1.150000000
H    -2.203000000     3.814000000     1.541000000
C    -1.120000000     4.552000000    -0.183000000
O    -2.241000000     4.302000000    -0.916000000
C    -2.253000000     3.060000000    -1.681000000
C    -3.693000000     2.459000000    -1.695000000
C    -4.237000000     1.813000000    -2.886000000
H    -3.632000000     1.885000000    -3.785000000
C    -4.439000000     2.433000000    -0.513000000
H    -4.069000000     3.002000000     0.336000000
O    -1.867000000     3.344000000    -3.036000000
H    -1.649000000     2.248000000    -1.250000000
C     0.133000000     4.886000000    -0.767000000
C     0.261000000     5.133000000    -2.281000000
H     1.041000000     5.865000000    -2.497000000
H    -0.677000000     5.615000000    -2.567000000
C     0.448000000     3.882000000    -3.035000000
C     1.744000000     3.405000000    -3.156000000
H     2.534000000     4.101000000    -2.884000000
C    -0.601000000     3.063000000    -3.481000000
C    -0.368000000     1.905000000    -4.128000000
H    -1.245000000     1.296000000    -4.329000000
C     0.940000000     1.409000000    -4.274000000
O     1.041000000     0.196000000    -4.900000000
C     1.232000000    -0.981000000    -4.054000000
C     0.448000000    -2.170000000    -4.456000000
C    -0.907000000    -1.982000000    -4.818000000
H    -1.297000000    -0.973000000    -4.921000000
C     0.863000000    -3.438000000    -4.208000000
H     1.889000000    -3.567000000    -3.872000000
O     2.664000000    -1.223000000    -4.000000000
H     0.870000000    -0.718000000    -3.049000000
C     2.003000000     2.218000000    -3.848000000
C     3.423000000     1.587000000    -3.943000000
H     4.161000000     2.391000000    -3.974000000
H     3.622000000     1.059000000    -4.877000000
C     3.817000000     0.630000000    -2.846000000
C     3.397000000    -0.710000000    -2.952000000
C     3.729000000    -1.526000000    -1.886000000
H     3.440000000    -2.573000000    -1.937000000
C     4.444000000    -1.067000000    -0.804000000
O     4.670000000    -1.966000000     0.216000000
C     3.860000000    -1.828000000     1.425000000
H     2.940000000    -1.280000000     1.177000000
C     3.372000000    -3.151000000     2.008000000
C     2.880000000    -3.305000000     3.311000000
H     3.134000000    -2.554000000     4.056000000
C     2.993000000    -4.076000000     1.060000000
H     3.074000000    -3.885000000    -0.007000000
C     2.255000000    -5.227000000     1.475000000
O     1.591000000    -5.968000000     0.580000000
C     1.820000000    -5.376000000     2.758000000
H     1.123000000    -6.189000000     2.939000000
C     2.147000000    -4.465000000     3.725000000
O     1.527000000    -4.632000000     4.955000000
C     1.489000000    -3.605000000     5.857000000
C     0.486000000    -2.628000000     5.749000000
H    -0.185000000    -2.625000000     4.894000000
C     2.394000000    -3.497000000     6.911000000
H     3.196000000    -4.225000000     7.000000000
C     2.156000000    -2.651000000     7.956000000
H     2.771000000    -2.639000000     8.852000000
C     0.966000000    -1.842000000     7.941000000
H     0.764000000    -1.089000000     8.698000000
C     0.163000000    -1.777000000     6.836000000
O    -1.040000000    -1.033000000     6.875000000
C    -1.429000000    -0.088000000     5.923000000
C    -2.750000000     0.206000000     5.941000000
H    -3.477000000    -0.316000000     6.559000000
C    -3.264000000     1.130000000     5.044000000
O    -4.661000000     1.302000000     4.972000000
C    -5.312000000     2.118000000     4.103000000
C    -5.668000000     1.528000000     2.871000000
H    -5.398000000     0.518000000     2.574000000
C    -5.427000000     3.487000000     4.295000000
H    -5.104000000     3.920000000     5.238000000
C    -5.853000000     4.382000000     3.332000000
H    -5.734000000     5.453000000     3.473000000
C    -6.227000000     3.826000000     2.121000000
H    -6.502000000     4.515000000     1.326000000
C    -6.148000000     2.431000000     1.858000000
O    -6.524000000     1.923000000     0.620000000
C    -5.713000000     1.866000000    -0.497000000
C    -6.168000000     1.164000000    -1.572000000
H    -7.132000000     0.662000000    -1.580000000
C    -5.394000000     1.101000000    -2.769000000
O    -5.950000000     0.447000000    -3.864000000
C    -5.172000000    -0.086000000    -4.860000000
C    -4.505000000    -1.283000000    -4.779000000
H    -4.854000000    -1.976000000    -4.018000000
C    -4.894000000     0.837000000    -5.887000000
H    -5.495000000     1.734000000    -6.013000000
C    -3.938000000     0.485000000    -6.891000000
H    -3.732000000     1.229000000    -7.656000000
C    -3.245000000    -0.745000000    -6.771000000
H    -2.447000000    -0.927000000    -7.487000000
C    -3.551000000    -1.642000000    -5.715000000
O    -2.973000000    -2.855000000    -5.571000000
C    -1.664000000    -3.063000000    -5.106000000
C    -1.240000000    -4.409000000    -4.826000000
H    -1.932000000    -5.229000000    -5.002000000
C     0.036000000    -4.562000000    -4.331000000
O     0.514000000    -5.787000000    -4.005000000
C     1.477000000    -5.990000000    -3.048000000
C     2.692000000    -6.606000000    -3.337000000
H     2.922000000    -6.770000000    -4.386000000
C     3.548000000    -7.051000000    -2.340000000
H     4.537000000    -7.457000000    -2.532000000
C     3.156000000    -6.779000000    -0.997000000
H     3.753000000    -7.143000000    -0.165000000
C     1.990000000    -6.159000000    -0.728000000
C     1.174000000    -5.667000000    -1.727000000
H     0.191000000    -5.397000000    -1.349000000
C    -2.127000000    -2.151000000    -0.512000000
H    -2.982000000    -2.338000000    -1.156000000
C    -1.269000000    -1.117000000    -0.848000000
H    -1.448000000    -0.553000000    -1.760000000
C    -0.190000000    -0.873000000    -0.005000000
H     0.518000000    -0.085000000    -0.203000000
C     0.055000000    -1.752000000     1.023000000
H     0.908000000    -1.494000000     1.645000000
C    -0.821000000    -2.828000000     1.271000000
H    -0.471000000    -3.567000000     1.986000000
C    -1.913000000    -3.032000000     0.478000000
C    -2.881000000    -4.150000000     0.731000000
O    -2.569000000    -5.093000000     1.433000000
O    -4.006000000    -4.046000000     0.290000000
O    -6.403000000    -5.211000000     0.167000000
H    -5.578000000    -4.881000000    -0.188000000
H    -6.211000000    -5.399000000     1.086000000
O    -3.909000000    -4.914000000    -2.589000000
H    -3.869000000    -4.737000000    -1.650000000
H    -3.286000000    -5.628000000    -2.725000000
O    -4.147000000    -9.386000000     1.921000000
H    -3.413000000   -10.000000000     1.917000000
H    -4.925000000    -9.943000000     1.903000000
O    -4.399000000    -2.915000000     3.613000000
H    -4.612000000    -2.335000000     2.881000000
H    -4.927000000    -3.698000000     3.459000000
O    -3.230000000    -0.495000000     2.186000000
H    -2.818000000     0.084000000     2.828000000
H    -2.496000000    -0.902000000     1.725000000
O    -4.494000000    -8.904000000     4.747000000
H    -3.934000000    -9.642000000     4.986000000
H    -4.317000000    -8.761000000     3.817000000
O    -8.537000000    -4.512000000     4.260000000
H    -7.674000000    -4.715000000     3.899000000
H    -8.714000000    -5.225000000     4.873000000
O    -6.046000000    -5.476000000    -4.227000000
H    -5.265000000    -5.466000000    -3.675000000
H    -6.487000000    -6.295000000    -4.004000000
O    -5.400000000    -1.955000000     1.090000000
H    -4.714000000    -1.309000000     1.256000000
H    -4.936000000    -2.709000000     0.727000000
O    -2.378000000    -5.332000000     6.693000000
H    -1.431000000    -5.442000000     6.784000000
H    -2.522000000    -5.269000000     5.749000000
O    -8.217000000    -2.506000000     0.539000000
H    -7.347000000    -2.496000000     0.938000000
H    -8.755000000    -1.973000000     1.124000000
O    -1.631000000    -7.977000000     5.449000000
H    -1.838000000    -8.494000000     4.671000000
H    -1.449000000    -7.099000000     5.112000000
O    -5.883000000    -5.237000000     3.758000000
H    -5.443000000    -5.860000000     3.180000000
H    -5.509000000    -5.407000000     4.623000000
O    -4.735000000    -6.730000000     1.795000000
H    -4.439000000    -7.631000000     1.665000000
H    -3.981000000    -6.193000000     1.551000000
O    -6.585000000    -7.659000000    -0.768000000
H    -6.962000000    -7.651000000    -1.648000000
H    -6.715000000    -6.768000000    -0.443000000
O    -2.626000000    -5.335000000     3.983000000
H    -2.326000000    -5.458000000     3.083000000
H    -3.232000000    -4.595000000     3.935000000
O    -1.688000000    -7.642000000     0.785000000
H    -1.534000000    -8.110000000     1.606000000
H    -1.855000000    -6.738000000     1.053000000
O    -3.673000000    -9.004000000    -1.044000000
H    -4.297000000    -8.466000000    -0.556000000
H    -2.955000000    -9.155000000    -0.430000000
O    -1.775000000    -7.110000000    -1.825000000
H    -2.547000000    -7.651000000    -1.656000000
H    -1.402000000    -6.946000000    -0.959000000
