215
-1469.80628
C    -2.479000000     1.581000000     3.718000000
H    -2.618000000     2.440000000     3.067000000
C    -1.207000000     1.182000000     4.117000000
C    -1.039000000    -0.132000000     4.545000000
H    -0.033000000    -0.543000000     4.550000000
C     0.033000000     1.978000000     3.649000000
O    -0.184000000     3.351000000     3.702000000
H     0.157000000     1.718000000     2.588000000
O     1.237000000     1.688000000     4.498000000
C     2.349000000     1.344000000     3.709000000
C     2.700000000    -0.009000000     3.634000000
H     2.199000000    -0.823000000     4.150000000
C     3.719000000    -0.366000000     2.730000000
O     3.938000000    -1.686000000     2.624000000
C     4.414000000     0.636000000     1.980000000
C     5.508000000     0.264000000     1.022000000
H     6.203000000     1.104000000     0.952000000
C     4.960000000    -0.221000000    -0.286000000
C     4.756000000     0.663000000    -1.335000000
H     5.151000000     1.663000000    -1.173000000
H     6.104000000    -0.512000000     1.507000000
C     4.165000000     2.025000000     2.185000000
H     4.702000000     2.789000000     1.629000000
C     3.062000000     2.323000000     3.002000000
C     2.683000000     3.745000000     3.080000000
H     3.486000000     4.423000000     2.784000000
H     2.452000000     4.027000000     4.109000000
C     1.547000000     4.157000000     2.174000000
C     1.898000000     4.571000000     0.866000000
H     2.910000000     4.697000000     0.487000000
C     0.242000000     4.053000000     2.589000000
C    -0.777000000     4.384000000     1.693000000
H    -1.817000000     4.368000000     2.009000000
C    -0.428000000     4.697000000     0.413000000
O    -1.473000000     4.909000000    -0.506000000
C    -1.801000000     3.802000000    -1.408000000
C    -3.311000000     3.636000000    -1.622000000
C    -3.763000000     2.915000000    -2.675000000
H    -3.002000000     2.560000000    -3.364000000
C    -4.225000000     3.895000000    -0.633000000
H    -3.964000000     4.443000000     0.269000000
O    -1.099000000     4.045000000    -2.727000000
H    -1.404000000     2.894000000    -0.931000000
C     0.895000000     4.785000000    -0.047000000
C     1.269000000     5.207000000    -1.420000000
H     2.247000000     5.692000000    -1.382000000
H     0.561000000     5.925000000    -1.840000000
C     1.336000000     4.028000000    -2.421000000
C     2.607000000     3.436000000    -2.674000000
H     3.532000000     3.894000000    -2.334000000
C     0.184000000     3.452000000    -2.895000000
C     0.256000000     2.357000000    -3.706000000
H    -0.567000000     1.866000000    -4.218000000
C     1.464000000     1.698000000    -3.927000000
O     1.386000000     0.462000000    -4.552000000
C     1.552000000    -0.693000000    -3.698000000
C     0.449000000    -1.726000000    -3.988000000
C    -0.737000000    -1.280000000    -4.587000000
H    -0.838000000    -0.265000000    -4.962000000
C     0.497000000    -2.998000000    -3.402000000
H     1.427000000    -3.336000000    -2.952000000
O     2.826000000    -1.274000000    -3.798000000
H     1.346000000    -0.416000000    -2.653000000
C     2.662000000     2.265000000    -3.426000000
C     4.028000000     1.473000000    -3.599000000
H     4.843000000     2.183000000    -3.444000000
H     4.123000000     1.086000000    -4.616000000
C     4.168000000     0.339000000    -2.577000000
C     3.713000000    -0.946000000    -2.733000000
C     3.852000000    -1.904000000    -1.717000000
H     3.387000000    -2.881000000    -1.814000000
C     4.600000000    -1.568000000    -0.547000000
O     4.661000000    -2.475000000     0.509000000
C     3.549000000    -2.401000000     1.378000000
H     2.675000000    -1.939000000     0.896000000
C     3.071000000    -3.863000000     1.731000000
C     2.630000000    -4.160000000     2.962000000
H     2.520000000    -3.374000000     3.704000000
C     2.951000000    -4.868000000     0.757000000
H     3.313000000    -4.848000000    -0.267000000
C     2.342000000    -6.090000000     1.126000000
O     2.093000000    -7.071000000     0.193000000
C     1.869000000    -6.343000000     2.402000000
H     1.361000000    -7.273000000     2.641000000
C     1.954000000    -5.351000000     3.296000000
O     1.253000000    -5.559000000     4.496000000
C     0.726000000    -4.571000000     5.294000000
C    -0.415000000    -3.823000000     4.906000000
H    -0.955000000    -4.142000000     4.018000000
C     1.331000000    -4.358000000     6.487000000
H     2.149000000    -4.986000000     6.831000000
C     0.869000000    -3.314000000     7.353000000
H     1.316000000    -3.125000000     8.325000000
C    -0.253000000    -2.548000000     6.917000000
H    -0.676000000    -1.827000000     7.611000000
C    -0.819000000    -2.761000000     5.704000000
O    -2.009000000    -2.206000000     5.383000000
C    -2.123000000    -0.925000000     4.847000000
C    -3.414000000    -0.473000000     4.632000000
H    -4.295000000    -1.108000000     4.673000000
C    -3.587000000     0.821000000     4.087000000
O    -4.829000000     1.230000000     3.882000000
C    -5.150000000     2.391000000     3.321000000
C    -5.641000000     2.484000000     2.033000000
H    -5.675000000     1.681000000     1.302000000
C    -5.182000000     3.495000000     4.130000000
H    -4.858000000     3.376000000     5.161000000
C    -5.613000000     4.755000000     3.657000000
H    -5.524000000     5.670000000     4.237000000
C    -6.084000000     4.799000000     2.377000000
H    -6.499000000     5.707000000     1.946000000
C    -6.077000000     3.686000000     1.537000000
O    -6.519000000     3.760000000     0.247000000
C    -5.590000000     3.530000000    -0.777000000
C    -6.088000000     2.952000000    -1.980000000
H    -7.145000000     2.699000000    -2.007000000
C    -5.100000000     2.672000000    -2.895000000
O    -5.415000000     1.832000000    -3.925000000
C    -4.595000000     1.339000000    -4.907000000
C    -4.060000000     0.066000000    -4.776000000
H    -4.246000000    -0.599000000    -3.936000000
C    -4.383000000     2.079000000    -6.081000000
H    -4.886000000     3.042000000    -6.101000000
C    -3.706000000     1.591000000    -7.196000000
H    -3.585000000     2.165000000    -8.111000000
C    -3.160000000     0.294000000    -7.058000000
H    -2.629000000    -0.177000000    -7.881000000
C    -3.287000000    -0.446000000    -5.831000000
O    -2.784000000    -1.733000000    -5.703000000
C    -1.758000000    -2.143000000    -4.897000000
C    -1.597000000    -3.487000000    -4.537000000
H    -2.377000000    -4.187000000    -4.829000000
C    -0.467000000    -3.926000000    -3.835000000
O    -0.356000000    -5.322000000    -3.719000000
C     0.700000000    -5.999000000    -3.139000000
C     1.565000000    -6.730000000    -3.991000000
H     1.480000000    -6.787000000    -5.073000000
C     2.458000000    -7.578000000    -3.381000000
H     2.851000000    -8.348000000    -4.039000000
C     2.641000000    -7.662000000    -1.981000000
H     3.307000000    -8.405000000    -1.549000000
C     1.864000000    -6.817000000    -1.138000000
C     0.835000000    -6.005000000    -1.735000000
H     0.076000000    -5.524000000    -1.122000000
C    -2.074000000    -1.295000000    -1.050000000
H    -2.967000000    -1.279000000    -1.670000000
C    -1.122000000    -0.321000000    -1.214000000
H    -1.205000000     0.399000000    -2.024000000
C    -0.145000000    -0.153000000    -0.252000000
H     0.537000000     0.588000000    -0.295000000
C    -0.051000000    -1.093000000     0.789000000
H     0.807000000    -0.975000000     1.445000000
C    -0.975000000    -2.114000000     0.902000000
H    -0.912000000    -2.909000000     1.640000000
C    -2.030000000    -2.254000000    -0.032000000
C    -3.231000000    -3.160000000     0.233000000
O    -3.130000000    -3.983000000     1.079000000
O    -4.214000000    -2.930000000    -0.438000000
O    -6.587000000    -3.892000000    -1.075000000
H    -5.726000000    -3.595000000    -0.781000000
H    -7.086000000    -4.016000000    -0.268000000
O    -4.037000000    -5.368000000    -1.990000000
H    -3.837000000    -4.591000000    -1.468000000
H    -3.356000000    -5.998000000    -1.753000000
O    -6.091000000    -2.530000000     2.713000000
H    -6.920000000    -2.392000000     3.170000000
H    -6.021000000    -1.787000000     2.114000000
O    -3.011000000     0.954000000     0.701000000
H    -2.886000000     0.460000000     1.511000000
H    -2.481000000     0.488000000     0.053000000
O    -8.074000000    -4.177000000     1.242000000
H    -9.008000000    -4.290000000     1.416000000
H    -7.657000000    -4.289000000     2.097000000
O    -7.458000000    -3.292000000    -3.617000000
H    -7.278000000    -3.425000000    -2.686000000
H    -7.275000000    -2.364000000    -3.766000000
O    -6.646000000    -6.732000000    -1.042000000
H    -6.242000000    -5.915000000    -1.334000000
H    -7.574000000    -6.628000000    -1.252000000
O    -5.274000000    -5.006000000    -4.829000000
H    -5.353000000    -4.829000000    -3.892000000
H    -5.263000000    -5.961000000    -4.893000000
O    -5.410000000    -0.706000000     0.781000000
H    -4.756000000    -0.047000000     0.548000000
H    -5.039000000    -1.532000000     0.471000000
O    -3.001000000    -6.153000000     4.983000000
H    -2.367000000    -6.489000000     4.350000000
H    -3.339000000    -5.352000000     4.581000000
O    -6.707000000    -0.493000000    -2.155000000
H    -7.639000000    -0.336000000    -2.307000000
H    -6.673000000    -0.923000000    -1.300000000
O    -5.309000000    -3.816000000     6.077000000
H    -4.691000000    -3.869000000     5.348000000
H    -5.676000000    -4.697000000     6.144000000
O    -4.861000000    -8.441000000    -2.193000000
H    -4.079000000    -8.003000000    -1.858000000
H    -5.591000000    -7.973000000    -1.788000000
O    -7.020000000    -5.473000000     3.793000000
H    -6.545000000    -5.576000000     2.968000000
H    -6.511000000    -5.979000000     4.426000000
O    -8.889000000    -1.527000000    -0.438000000
H    -9.539000000    -2.088000000    -0.862000000
H    -8.380000000    -2.123000000     0.111000000
O    -5.254000000    -5.899000000     1.682000000
H    -5.573000000    -6.138000000     0.812000000
H    -4.645000000    -5.178000000     1.524000000
O    -4.110000000    -4.190000000     3.632000000
H    -3.634000000    -4.042000000     2.814000000
H    -5.012000000    -3.940000000     3.432000000
O    -1.849000000    -6.302000000     0.919000000
H    -1.716000000    -6.601000000     1.819000000
H    -2.216000000    -5.423000000     1.011000000
O    -2.339000000    -7.256000000    -1.794000000
H    -1.746000000    -7.767000000    -2.345000000
H    -1.989000000    -7.357000000    -0.909000000
