215
-1464.87383
C    -2.544000000     1.209000000     4.108000000
H    -2.723000000     1.933000000     3.317000000
C    -1.223000000     1.098000000     4.643000000
C    -0.891000000     0.095000000     5.589000000
H     0.091000000    -0.112000000     6.008000000
C    -0.076000000     1.790000000     3.969000000
O    -0.282000000     3.174000000     3.683000000
H     0.205000000     1.319000000     3.015000000
O     1.112000000     1.811000000     4.741000000
C     2.316000000     1.553000000     4.049000000
C     2.542000000     0.187000000     3.873000000
H     1.960000000    -0.555000000     4.414000000
C     3.621000000    -0.252000000     3.111000000
O     3.755000000    -1.658000000     2.923000000
C     4.360000000     0.623000000     2.334000000
C     5.467000000     0.073000000     1.415000000
H     6.307000000     0.757000000     1.276000000
C     4.924000000    -0.213000000     0.034000000
C     5.110000000     0.742000000    -0.987000000
H     5.509000000     1.736000000    -0.800000000
H     5.893000000    -0.809000000     1.897000000
C     4.107000000     2.032000000     2.465000000
H     4.551000000     2.793000000     1.828000000
C     3.024000000     2.464000000     3.218000000
C     2.549000000     3.909000000     3.230000000
H     3.346000000     4.643000000     3.090000000
H     2.154000000     4.111000000     4.228000000
C     1.429000000     4.036000000     2.289000000
C     1.792000000     4.529000000     1.018000000
H     2.850000000     4.700000000     0.839000000
C     0.134000000     3.742000000     2.521000000
C    -0.852000000     3.797000000     1.511000000
H    -1.876000000     3.628000000     1.832000000
C    -0.494000000     4.295000000     0.276000000
O    -1.537000000     4.325000000    -0.708000000
C    -1.560000000     3.295000000    -1.665000000
C    -2.926000000     2.684000000    -1.983000000
C    -3.243000000     2.180000000    -3.242000000
H    -2.543000000     2.382000000    -4.049000000
C    -3.821000000     2.596000000    -0.899000000
H    -3.652000000     2.905000000     0.130000000
O    -0.934000000     3.806000000    -2.854000000
H    -1.018000000     2.427000000    -1.260000000
C     0.799000000     4.649000000    -0.022000000
C     1.171000000     5.134000000    -1.422000000
H     2.095000000     5.710000000    -1.344000000
H     0.406000000     5.769000000    -1.874000000
C     1.465000000     4.009000000    -2.295000000
C     2.764000000     3.459000000    -2.395000000
H     3.604000000     3.829000000    -1.811000000
C     0.388000000     3.433000000    -3.046000000
C     0.635000000     2.438000000    -3.968000000
H    -0.171000000     2.037000000    -4.577000000
C     1.861000000     1.875000000    -4.035000000
O     2.078000000     0.749000000    -4.793000000
C     1.929000000    -0.470000000    -4.030000000
C     1.092000000    -1.470000000    -4.809000000
C     0.118000000    -1.097000000    -5.752000000
H     0.006000000    -0.020000000    -5.850000000
C     1.112000000    -2.827000000    -4.569000000
H     1.910000000    -3.255000000    -3.967000000
O     3.243000000    -1.105000000    -3.711000000
H     1.411000000    -0.229000000    -3.089000000
C     2.959000000     2.358000000    -3.211000000
C     4.384000000     1.685000000    -3.186000000
H     5.158000000     2.455000000    -3.154000000
H     4.383000000     1.409000000    -4.242000000
C     4.446000000     0.516000000    -2.230000000
C     3.859000000    -0.763000000    -2.552000000
C     3.717000000    -1.707000000    -1.491000000
H     3.312000000    -2.692000000    -1.707000000
C     4.282000000    -1.455000000    -0.224000000
O     4.082000000    -2.409000000     0.728000000
C     3.078000000    -2.078000000     1.690000000
H     2.544000000    -1.204000000     1.289000000
C     2.062000000    -3.275000000     1.994000000
C     1.522000000    -3.595000000     3.233000000
H     1.882000000    -3.079000000     4.119000000
C     1.326000000    -3.769000000     0.861000000
H     1.735000000    -3.466000000    -0.099000000
C     0.329000000    -4.747000000     1.014000000
O    -0.184000000    -5.378000000    -0.086000000
C    -0.072000000    -5.161000000     2.268000000
H    -0.763000000    -5.996000000     2.357000000
C     0.529000000    -4.556000000     3.362000000
O     0.163000000    -5.023000000     4.625000000
C     0.206000000    -4.276000000     5.795000000
C    -0.650000000    -3.193000000     5.890000000
H    -1.270000000    -2.959000000     5.029000000
C     0.886000000    -4.735000000     6.982000000
H     1.622000000    -5.534000000     6.948000000
C     0.729000000    -4.115000000     8.197000000
H     1.091000000    -4.497000000     9.148000000
C    -0.125000000    -2.978000000     8.239000000
H    -0.353000000    -2.568000000     9.219000000
C    -0.792000000    -2.565000000     7.101000000
O    -1.667000000    -1.451000000     7.172000000
C    -1.977000000    -0.562000000     6.176000000
C    -3.292000000    -0.504000000     5.589000000
H    -4.054000000    -1.218000000     5.891000000
C    -3.603000000     0.445000000     4.595000000
O    -4.828000000     0.496000000     4.033000000
C    -5.241000000     1.577000000     3.354000000
C    -5.367000000     1.416000000     2.005000000
H    -4.987000000     0.480000000     1.605000000
C    -5.625000000     2.850000000     3.886000000
H    -5.371000000     3.129000000     4.905000000
C    -6.219000000     3.824000000     3.030000000
H    -6.572000000     4.733000000     3.510000000
C    -6.452000000     3.528000000     1.674000000
H    -7.023000000     4.167000000     1.006000000
C    -5.893000000     2.340000000     1.170000000
O    -6.089000000     2.073000000    -0.169000000
C    -5.102000000     2.076000000    -1.150000000
C    -5.426000000     1.616000000    -2.405000000
H    -6.456000000     1.354000000    -2.636000000
C    -4.510000000     1.615000000    -3.481000000
O    -4.814000000     1.125000000    -4.708000000
C    -3.908000000     1.059000000    -5.774000000
C    -3.254000000    -0.140000000    -5.957000000
H    -3.381000000    -0.905000000    -5.195000000
C    -3.904000000     2.127000000    -6.709000000
H    -4.497000000     3.036000000    -6.662000000
C    -3.035000000     1.988000000    -7.828000000
H    -3.020000000     2.713000000    -8.638000000
C    -2.277000000     0.813000000    -7.981000000
H    -1.664000000     0.618000000    -8.858000000
C    -2.424000000    -0.273000000    -7.094000000
O    -1.738000000    -1.488000000    -7.314000000
C    -0.793000000    -1.943000000    -6.411000000
C    -0.708000000    -3.257000000    -6.078000000
H    -1.438000000    -3.941000000    -6.503000000
C     0.258000000    -3.705000000    -5.190000000
O     0.404000000    -5.039000000    -4.829000000
C     0.837000000    -5.440000000    -3.585000000
C     2.051000000    -6.081000000    -3.487000000
H     2.651000000    -6.282000000    -4.371000000
C     2.500000000    -6.582000000    -2.203000000
H     3.506000000    -6.967000000    -2.055000000
C     1.722000000    -6.358000000    -1.075000000
H     2.074000000    -6.583000000    -0.072000000
C     0.478000000    -5.695000000    -1.219000000
C     0.070000000    -5.202000000    -2.466000000
H    -0.880000000    -4.674000000    -2.482000000
C    -2.066000000    -0.824000000    -1.468000000
H    -2.722000000    -0.744000000    -2.331000000
C    -0.841000000    -0.165000000    -1.529000000
H    -0.599000000     0.433000000    -2.405000000
C    -0.009000000    -0.208000000    -0.369000000
H     0.936000000     0.294000000    -0.395000000
C    -0.389000000    -0.807000000     0.826000000
H     0.239000000    -0.737000000     1.711000000
C    -1.531000000    -1.556000000     0.817000000
H    -1.853000000    -2.076000000     1.715000000
C    -2.415000000    -1.507000000    -0.252000000
C    -3.748000000    -2.260000000    -0.168000000
O    -4.155000000    -2.823000000     0.843000000
O    -4.461000000    -2.424000000    -1.140000000
O    -3.718000000    -3.244000000    -3.619000000
H    -3.263000000    -4.061000000    -3.413000000
H    -4.056000000    -2.939000000    -2.777000000
O    -2.592000000    -7.751000000    -4.066000000
H    -1.868000000    -8.329000000    -3.824000000
H    -2.587000000    -7.068000000    -3.396000000
O    -6.799000000    -3.924000000     1.626000000
H    -6.599000000    -3.647000000     2.521000000
H    -6.051000000    -3.624000000     1.110000000
O    -6.536000000    -1.425000000    -2.624000000
H    -5.676000000    -1.700000000    -2.304000000
H    -6.483000000    -1.529000000    -3.574000000
O    -5.801000000    -7.379000000    -0.267000000
H    -5.077000000    -6.958000000     0.196000000
H    -6.584000000    -6.935000000     0.059000000
O    -7.788000000    -6.248000000     0.990000000
H    -8.744000000    -6.279000000     1.007000000
H    -7.574000000    -5.337000000     1.192000000
O    -8.752000000    -2.983000000    -2.421000000
H    -9.186000000    -2.879000000    -3.267000000
H    -8.086000000    -2.295000000    -2.406000000
O    -5.303000000    -6.316000000    -4.762000000
H    -5.544000000    -6.016000000    -3.886000000
H    -5.860000000    -5.808000000    -5.351000000
O    -9.494000000    -1.682000000     0.948000000
H    -9.900000000    -1.670000000     1.814000000
H    -8.609000000    -1.348000000     1.093000000
O    -6.109000000    -2.592000000    -5.438000000
H    -6.834000000    -3.217000000    -5.463000000
H    -5.422000000    -3.042000000    -4.946000000
O    -3.034000000    -5.136000000     4.023000000
H    -3.702000000    -4.458000000     3.919000000
H    -2.968000000    -5.263000000     4.969000000
O    -3.278000000    -7.808000000     3.703000000
H    -2.377000000    -8.132000000     3.701000000
H    -3.191000000    -6.858000000     3.779000000
O    -7.044000000    -0.573000000     0.454000000
H    -6.768000000     0.299000000     0.172000000
H    -6.652000000    -1.167000000    -0.186000000
O    -9.833000000    -4.285000000    -0.297000000
H   -10.128000000    -3.866000000     0.511000000
H    -9.319000000    -3.611000000    -0.742000000
O    -8.782000000     0.631000000    -1.909000000
H    -9.500000000     0.317000000    -1.359000000
H    -8.534000000    -0.129000000    -2.436000000
O    -5.983000000    -4.969000000    -2.520000000
H    -5.598000000    -4.473000000    -1.797000000
H    -6.835000000    -4.556000000    -2.665000000
O    -4.600000000    -3.021000000     3.354000000
H    -4.356000000    -2.875000000     2.440000000
H    -4.616000000    -2.145000000     3.740000000
O    -3.542000000    -5.369000000     0.771000000
H    -3.150000000    -5.556000000     1.624000000
H    -3.628000000    -4.415000000     0.751000000
O    -3.246000000    -5.774000000    -1.934000000
H    -3.184000000    -5.434000000    -1.042000000
H    -4.185000000    -5.887000000    -2.083000000
