215
-1467.74679
C    -2.837000000     2.164000000     3.873000000
H    -2.666000000     3.155000000     3.461000000
C    -1.664000000     1.510000000     4.263000000
C    -1.736000000     0.274000000     4.809000000
H    -0.824000000    -0.311000000     4.893000000
C    -0.294000000     2.068000000     3.720000000
O    -0.201000000     3.508000000     3.592000000
H    -0.085000000     1.637000000     2.730000000
O     0.795000000     1.526000000     4.575000000
C     2.019000000     1.097000000     4.030000000
C     2.166000000    -0.305000000     3.886000000
H     1.423000000    -0.931000000     4.374000000
C     3.163000000    -0.835000000     3.157000000
O     3.189000000    -2.208000000     2.858000000
C     4.125000000     0.001000000     2.561000000
C     5.265000000    -0.537000000     1.722000000
H     6.170000000     0.074000000     1.750000000
C     4.892000000    -0.803000000     0.299000000
C     5.121000000     0.264000000    -0.589000000
H     5.654000000     1.181000000    -0.349000000
H     5.695000000    -1.464000000     2.106000000
C     4.054000000     1.401000000     2.701000000
H     4.789000000     2.019000000     2.193000000
C     2.965000000     1.931000000     3.386000000
C     2.802000000     3.446000000     3.422000000
H     3.716000000     4.019000000     3.249000000
H     2.385000000     3.806000000     4.365000000
C     1.820000000     3.921000000     2.329000000
C     2.342000000     4.302000000     1.073000000
H     3.399000000     4.159000000     0.864000000
C     0.422000000     4.039000000     2.535000000
C    -0.378000000     4.535000000     1.584000000
H    -1.437000000     4.551000000     1.829000000
C     0.023000000     4.791000000     0.317000000
O    -0.844000000     5.017000000    -0.727000000
C    -1.017000000     3.868000000    -1.530000000
C    -2.503000000     3.616000000    -1.792000000
C    -2.753000000     2.709000000    -2.815000000
H    -1.937000000     2.270000000    -3.385000000
C    -3.548000000     4.044000000    -0.959000000
H    -3.367000000     4.702000000    -0.113000000
O    -0.405000000     4.167000000    -2.795000000
H    -0.520000000     3.010000000    -1.053000000
C     1.440000000     4.749000000     0.043000000
C     1.971000000     5.243000000    -1.295000000
H     2.949000000     5.700000000    -1.134000000
H     1.557000000     6.129000000    -1.782000000
C     1.998000000     4.000000000    -2.226000000
C     3.194000000     3.259000000    -2.321000000
H     4.125000000     3.634000000    -1.906000000
C     0.876000000     3.575000000    -2.949000000
C     0.936000000     2.416000000    -3.615000000
H     0.063000000     2.132000000    -4.196000000
C     2.099000000     1.619000000    -3.646000000
O     2.110000000     0.458000000    -4.335000000
C     2.043000000    -0.813000000    -3.616000000
C     1.189000000    -1.839000000    -4.368000000
C     0.193000000    -1.384000000    -5.183000000
H     0.130000000    -0.311000000    -5.345000000
C     1.435000000    -3.252000000    -4.350000000
H     2.275000000    -3.677000000    -3.806000000
O     3.400000000    -1.240000000    -3.504000000
H     1.546000000    -0.688000000    -2.642000000
C     3.284000000     2.066000000    -2.983000000
C     4.612000000     1.278000000    -2.898000000
H     5.474000000     1.915000000    -2.689000000
H     4.804000000     0.847000000    -3.883000000
C     4.589000000     0.100000000    -1.853000000
C     3.926000000    -1.105000000    -2.246000000
C     3.832000000    -2.155000000    -1.422000000
H     3.243000000    -3.044000000    -1.633000000
C     4.283000000    -1.996000000    -0.115000000
O     3.965000000    -3.004000000     0.791000000
C     2.756000000    -2.729000000     1.566000000
H     2.180000000    -1.987000000     0.994000000
C     1.900000000    -3.945000000     1.838000000
C     1.264000000    -4.250000000     3.103000000
H     1.463000000    -3.662000000     3.995000000
C     1.484000000    -4.691000000     0.733000000
H     1.764000000    -4.360000000    -0.264000000
C     0.520000000    -5.696000000     0.849000000
O    -0.026000000    -6.338000000    -0.241000000
C     0.029000000    -6.003000000     2.080000000
H    -0.612000000    -6.874000000     2.195000000
C     0.369000000    -5.317000000     3.198000000
O    -0.350000000    -5.448000000     4.305000000
C    -0.722000000    -4.459000000     5.185000000
C    -1.678000000    -3.521000000     4.799000000
H    -2.258000000    -3.582000000     3.882000000
C    -0.141000000    -4.425000000     6.405000000
H     0.636000000    -5.126000000     6.699000000
C    -0.520000000    -3.439000000     7.334000000
H    -0.087000000    -3.399000000     8.331000000
C    -1.539000000    -2.587000000     6.986000000
H    -1.871000000    -1.864000000     7.727000000
C    -2.040000000    -2.509000000     5.696000000
O    -3.067000000    -1.617000000     5.434000000
C    -2.960000000    -0.317000000     5.127000000
C    -4.182000000     0.402000000     4.967000000
H    -5.136000000    -0.009000000     5.287000000
C    -4.023000000     1.640000000     4.335000000
O    -5.247000000     2.278000000     4.136000000
C    -5.487000000     3.302000000     3.291000000
C    -5.370000000     3.143000000     1.878000000
H    -5.139000000     2.173000000     1.446000000
C    -5.987000000     4.559000000     3.764000000
H    -5.965000000     4.705000000     4.841000000
C    -6.440000000     5.505000000     2.857000000
H    -6.716000000     6.493000000     3.217000000
C    -6.310000000     5.307000000     1.479000000
H    -6.631000000     6.094000000     0.801000000
C    -5.731000000     4.149000000     0.996000000
O    -5.895000000     3.900000000    -0.311000000
C    -4.826000000     3.459000000    -1.116000000
C    -5.129000000     2.561000000    -2.166000000
H    -6.149000000     2.224000000    -2.336000000
C    -4.080000000     2.177000000    -2.989000000
O    -4.376000000     1.282000000    -4.065000000
C    -3.629000000     1.075000000    -5.179000000
C    -3.265000000    -0.278000000    -5.426000000
H    -3.548000000    -1.085000000    -4.755000000
C    -3.216000000     2.083000000    -6.050000000
H    -3.574000000     3.093000000    -5.866000000
C    -2.356000000     1.814000000    -7.148000000
H    -2.045000000     2.562000000    -7.873000000
C    -1.893000000     0.474000000    -7.293000000
H    -1.329000000     0.248000000    -8.195000000
C    -2.332000000    -0.529000000    -6.428000000
O    -1.848000000    -1.779000000    -6.600000000
C    -0.778000000    -2.266000000    -5.744000000
C    -0.611000000    -3.626000000    -5.636000000
H    -1.190000000    -4.353000000    -6.200000000
C     0.585000000    -4.146000000    -5.024000000
O     0.840000000    -5.530000000    -4.941000000
C     1.172000000    -6.155000000    -3.676000000
C     1.985000000    -7.288000000    -3.716000000
H     2.479000000    -7.615000000    -4.628000000
C     2.239000000    -7.977000000    -2.554000000
H     2.965000000    -8.783000000    -2.628000000
C     1.710000000    -7.575000000    -1.313000000
H     2.080000000    -8.040000000    -0.403000000
C     0.719000000    -6.609000000    -1.324000000
C     0.482000000    -5.855000000    -2.480000000
H    -0.208000000    -5.015000000    -2.500000000
C    -2.395000000    -0.527000000    -0.873000000
H    -3.160000000    -0.650000000    -1.635000000
C    -1.152000000     0.099000000    -0.991000000
H    -0.855000000     0.658000000    -1.875000000
C    -0.235000000     0.121000000     0.063000000
H     0.733000000     0.562000000    -0.055000000
C    -0.644000000    -0.375000000     1.331000000
H    -0.011000000    -0.342000000     2.214000000
C    -1.884000000    -0.952000000     1.501000000
H    -2.186000000    -1.382000000     2.452000000
C    -2.710000000    -1.034000000     0.380000000
C    -4.075000000    -1.785000000     0.517000000
O    -4.361000000    -2.332000000     1.571000000
O    -5.025000000    -1.480000000    -0.204000000
O    -8.780000000     0.310000000     3.417000000
H    -8.571000000    -0.096000000     2.576000000
H    -9.113000000     1.177000000     3.189000000
O    -4.032000000    -5.303000000    -1.915000000
H    -3.557000000    -5.048000000    -1.124000000
H    -4.775000000    -5.815000000    -1.594000000
O    -6.820000000    -3.589000000     0.097000000
H    -7.571000000    -3.062000000    -0.178000000
H    -6.071000000    -2.998000000     0.018000000
O    -5.826000000    -0.923000000    -2.880000000
H    -5.732000000    -1.076000000    -1.939000000
H    -5.357000000    -0.104000000    -3.038000000
O    -7.442000000    -4.003000000     2.804000000
H    -6.804000000    -3.371000000     3.137000000
H    -7.063000000    -4.316000000     1.982000000
O    -3.072000000    -6.496000000    -4.137000000
H    -3.422000000    -6.074000000    -3.353000000
H    -2.918000000    -7.403000000    -3.872000000
O    -9.749000000    -2.388000000    -0.867000000
H    -9.675000000    -1.433000000    -0.853000000
H   -10.088000000    -2.614000000     0.000000000
O    -7.016000000    -3.457000000     5.798000000
H    -7.093000000    -2.526000000     6.006000000
H    -7.011000000    -3.489000000     4.841000000
O   -10.056000000    -2.085000000     1.936000000
H   -10.550000000    -1.945000000     2.744000000
H    -9.209000000    -2.421000000     2.229000000
O    -5.447000000    -3.535000000    -4.121000000
H    -4.908000000    -3.837000000    -3.389000000
H    -5.779000000    -2.683000000    -3.839000000
O    -3.295000000    -6.586000000     3.357000000
H    -3.961000000    -6.233000000     3.947000000
H    -2.484000000    -6.557000000     3.865000000
O    -6.763000000    -0.735000000     1.713000000
H    -6.072000000    -0.918000000     1.077000000
H    -6.320000000    -0.757000000     2.561000000
O    -8.392000000    -2.954000000    -3.503000000
H    -8.796000000    -2.721000000    -2.667000000
H    -8.102000000    -2.118000000    -3.869000000
O    -6.665000000    -6.067000000    -1.374000000
H    -6.771000000    -5.194000000    -0.995000000
H    -7.456000000    -6.199000000    -1.896000000
O    -8.092000000     1.035000000     0.085000000
H    -7.551000000     1.803000000    -0.097000000
H    -7.500000000     0.424000000     0.525000000
O    -5.556000000    -2.496000000     3.924000000
H    -5.084000000    -2.287000000     3.118000000
H    -4.902000000    -2.398000000     4.617000000
O    -3.983000000    -4.832000000     1.007000000
H    -3.463000000    -5.105000000     1.763000000
H    -4.227000000    -3.926000000     1.199000000
O    -6.047000000    -6.829000000     1.099000000
H    -5.296000000    -6.243000000     1.013000000
H    -6.584000000    -6.646000000     0.327000000
O    -9.645000000     0.112000000    -1.668000000
H   -10.295000000     0.814000000    -1.643000000
H    -8.970000000     0.389000000    -1.047000000
