215
-1422.29357
C    -3.023000000     2.253000000     3.820000000
H    -3.040000000     3.135000000     3.184000000
C    -1.751000000     1.674000000     4.103000000
C    -1.626000000     0.428000000     4.790000000
H    -0.674000000    -0.078000000     4.925000000
C    -0.486000000     2.305000000     3.543000000
O    -0.559000000     3.800000000     3.257000000
H    -0.363000000     1.735000000     2.610000000
O     0.673000000     2.101000000     4.383000000
C     1.908000000     1.728000000     3.820000000
C     2.210000000     0.421000000     3.928000000
H     1.498000000    -0.248000000     4.406000000
C     3.379000000    -0.131000000     3.317000000
O     3.478000000    -1.473000000     3.219000000
C     4.122000000     0.767000000     2.523000000
C     5.373000000     0.326000000     1.797000000
H     6.120000000     1.100000000     1.605000000
C     5.015000000    -0.221000000     0.420000000
C     4.893000000     0.633000000    -0.646000000
H     5.252000000     1.644000000    -0.473000000
H     5.862000000    -0.527000000     2.273000000
C     3.755000000     2.091000000     2.361000000
H     4.455000000     2.773000000     1.885000000
C     2.674000000     2.602000000     3.086000000
C     2.189000000     4.094000000     3.024000000
H     3.049000000     4.755000000     2.899000000
H     1.676000000     4.361000000     3.951000000
C     1.304000000     4.221000000     1.803000000
C     1.845000000     4.588000000     0.584000000
H     2.894000000     4.743000000     0.343000000
C    -0.065000000     4.140000000     2.045000000
C    -0.925000000     4.469000000     1.011000000
H    -2.000000000     4.369000000     1.133000000
C    -0.453000000     4.860000000    -0.259000000
O    -1.398000000     4.719000000    -1.280000000
C    -1.389000000     3.461000000    -2.044000000
C    -2.857000000     3.033000000    -2.337000000
C    -3.220000000     2.684000000    -3.622000000
H    -2.508000000     2.748000000    -4.441000000
C    -3.783000000     2.915000000    -1.283000000
H    -3.490000000     3.261000000    -0.295000000
O    -0.558000000     3.636000000    -3.176000000
H    -0.981000000     2.628000000    -1.453000000
C     0.956000000     4.879000000    -0.458000000
C     1.513000000     5.140000000    -1.847000000
H     2.453000000     5.684000000    -1.734000000
H     1.000000000     5.796000000    -2.555000000
C     1.788000000     3.858000000    -2.610000000
C     3.039000000     3.261000000    -2.670000000
H     3.859000000     3.715000000    -2.118000000
C     0.698000000     3.267000000    -3.253000000
C     0.884000000     2.109000000    -3.973000000
H     0.036000000     1.610000000    -4.435000000
C     2.105000000     1.444000000    -3.942000000
O     2.163000000     0.198000000    -4.521000000
C     2.156000000    -0.995000000    -3.669000000
C     1.284000000    -2.052000000    -4.330000000
C     0.015000000    -1.775000000    -4.779000000
H    -0.436000000    -0.789000000    -4.707000000
C     1.616000000    -3.411000000    -4.194000000
H     2.573000000    -3.681000000    -3.757000000
O     3.464000000    -1.454000000    -3.331000000
H     1.567000000    -0.671000000    -2.798000000
C     3.217000000     2.019000000    -3.228000000
C     4.557000000     1.307000000    -3.000000000
H     5.199000000     2.141000000    -2.709000000
H     4.961000000     0.888000000    -3.924000000
C     4.455000000     0.250000000    -1.904000000
C     3.973000000    -1.036000000    -2.107000000
C     4.042000000    -1.966000000    -1.031000000
H     3.697000000    -2.978000000    -1.229000000
C     4.482000000    -1.533000000     0.224000000
O     4.352000000    -2.463000000     1.246000000
C     3.131000000    -2.204000000     2.026000000
H     2.402000000    -1.603000000     1.462000000
C     2.302000000    -3.498000000     2.291000000
C     1.801000000    -3.844000000     3.539000000
H     2.123000000    -3.264000000     4.400000000
C     1.832000000    -4.305000000     1.209000000
H     2.123000000    -3.926000000     0.233000000
C     0.888000000    -5.334000000     1.528000000
O     0.419000000    -6.100000000     0.480000000
C     0.410000000    -5.619000000     2.834000000
H    -0.372000000    -6.356000000     2.999000000
C     0.959000000    -4.897000000     3.847000000
O     0.447000000    -4.988000000     5.091000000
C    -0.034000000    -3.864000000     5.741000000
C    -1.081000000    -3.046000000     5.234000000
H    -1.525000000    -3.160000000     4.248000000
C     0.528000000    -3.742000000     6.997000000
H     1.337000000    -4.398000000     7.306000000
C    -0.123000000    -2.843000000     7.862000000
H     0.201000000    -2.856000000     8.899000000
C    -1.195000000    -2.101000000     7.437000000
H    -1.766000000    -1.517000000     8.154000000
C    -1.678000000    -2.200000000     6.134000000
O    -2.779000000    -1.438000000     5.785000000
C    -2.790000000    -0.162000000     5.302000000
C    -4.041000000     0.453000000     5.044000000
H    -4.887000000    -0.198000000     5.254000000
C    -4.169000000     1.618000000     4.302000000
O    -5.389000000     2.143000000     4.006000000
C    -5.676000000     2.983000000     3.008000000
C    -5.652000000     2.342000000     1.765000000
H    -5.262000000     1.333000000     1.666000000
C    -6.083000000     4.328000000     3.155000000
H    -6.350000000     4.798000000     4.098000000
C    -6.378000000     5.088000000     1.991000000
H    -6.819000000     6.077000000     2.084000000
C    -6.350000000     4.415000000     0.771000000
H    -6.662000000     4.934000000    -0.131000000
C    -6.010000000     3.050000000     0.668000000
O    -6.029000000     2.426000000    -0.493000000
C    -5.131000000     2.412000000    -1.574000000
C    -5.425000000     1.961000000    -2.829000000
H    -6.433000000     1.636000000    -3.076000000
C    -4.421000000     2.069000000    -3.833000000
O    -4.741000000     1.542000000    -5.097000000
C    -3.914000000     0.676000000    -5.811000000
C    -3.586000000    -0.648000000    -5.379000000
H    -4.019000000    -1.014000000    -4.451000000
C    -3.238000000     1.152000000    -6.957000000
H    -3.305000000     2.207000000    -7.208000000
C    -2.293000000     0.424000000    -7.645000000
H    -1.812000000     0.850000000    -8.521000000
C    -1.892000000    -0.804000000    -7.086000000
H    -1.222000000    -1.429000000    -7.671000000
C    -2.564000000    -1.294000000    -5.993000000
O    -2.198000000    -2.497000000    -5.428000000
C    -0.922000000    -2.829000000    -5.051000000
C    -0.516000000    -4.145000000    -4.955000000
H    -1.272000000    -4.924000000    -5.019000000
C     0.776000000    -4.459000000    -4.551000000
O     1.121000000    -5.817000000    -4.220000000
C     1.560000000    -6.237000000    -3.018000000
C     2.666000000    -7.091000000    -2.913000000
H     3.209000000    -7.414000000    -3.798000000
C     3.041000000    -7.532000000    -1.601000000
H     3.892000000    -8.204000000    -1.531000000
C     2.290000000    -7.238000000    -0.474000000
H     2.415000000    -7.709000000     0.498000000
C     1.236000000    -6.337000000    -0.619000000
C     0.796000000    -5.891000000    -1.874000000
H    -0.106000000    -5.292000000    -1.963000000
C    -2.263000000    -0.927000000    -0.746000000
H    -2.942000000    -0.899000000    -1.595000000
C    -0.947000000    -0.359000000    -0.891000000
H    -0.685000000     0.142000000    -1.820000000
C    -0.052000000    -0.302000000     0.175000000
H     0.873000000     0.334000000     0.155000000
C    -0.418000000    -0.900000000     1.381000000
H     0.256000000    -0.899000000     2.233000000
C    -1.647000000    -1.423000000     1.498000000
H    -1.812000000    -1.810000000     2.500000000
C    -2.616000000    -1.395000000     0.507000000
C    -3.966000000    -1.878000000     0.773000000
O    -4.238000000    -2.542000000     1.751000000
O    -4.841000000    -1.778000000    -0.020000000
O    -8.458000000     0.490000000     3.410000000
H    -8.752000000    -0.410000000     3.269000000
H    -7.889000000     0.676000000     2.663000000
O    -3.508000000    -6.467000000    -0.934000000
H    -3.238000000    -6.165000000    -0.066000000
H    -3.866000000    -5.687000000    -1.358000000
O    -5.649000000    -4.132000000    -1.179000000
H    -6.600000000    -4.021000000    -1.189000000
H    -5.329000000    -3.405000000    -0.644000000
O    -6.556000000    -1.214000000    -2.142000000
H    -5.731000000    -1.152000000    -1.661000000
H    -7.121000000    -1.747000000    -1.582000000
O    -7.007000000    -5.733000000     1.015000000
H    -6.724000000    -5.167000000     1.733000000
H    -6.522000000    -5.415000000     0.254000000
O    -4.846000000    -3.760000000     5.586000000
H    -4.111000000    -4.154000000     6.055000000
H    -5.614000000    -3.987000000     6.109000000
O    -8.241000000    -3.431000000    -0.945000000
H    -8.852000000    -2.848000000    -1.395000000
H    -8.780000000    -3.897000000    -0.306000000
O    -9.852000000     2.391000000     1.560000000
H    -9.525000000     2.050000000     2.392000000
H    -9.489000000     1.802000000     0.899000000
O    -8.795000000    -2.937000000     3.581000000
H    -7.945000000    -3.043000000     3.155000000
H    -9.418000000    -3.341000000     2.977000000
O    -4.678000000    -3.704000000    -3.678000000
H    -5.211000000    -3.478000000    -2.917000000
H    -4.335000000    -4.576000000    -3.481000000
O    -3.385000000    -6.420000000     4.194000000
H    -3.177000000    -5.854000000     4.937000000
H    -3.169000000    -7.302000000     4.497000000
O    -6.136000000    -6.415000000     4.919000000
H    -6.192000000    -5.919000000     4.102000000
H    -5.329000000    -6.106000000     5.331000000
O    -7.094000000    -1.220000000     1.237000000
H    -6.867000000    -1.802000000     1.963000000
H    -6.346000000    -1.276000000     0.643000000
O    -6.623000000    -5.990000000    -3.902000000
H    -6.659000000    -5.158000000    -4.375000000
H    -7.527000000    -6.303000000    -3.899000000
O    -8.407000000     0.819000000     0.015000000
H    -7.936000000     1.438000000    -0.542000000
H    -7.750000000     0.165000000     0.255000000
O    -7.889000000    -1.756000000    -4.672000000
H    -7.319000000    -2.208000000    -5.294000000
H    -7.299000000    -1.461000000    -3.978000000
O    -6.113000000    -3.716000000     3.065000000
H    -5.534000000    -3.315000000     2.416000000
H    -5.639000000    -3.632000000     3.893000000
O    -4.085000000    -5.254000000     1.908000000
H    -3.745000000    -5.723000000     2.670000000
H    -3.871000000    -4.337000000     2.075000000
O    -5.590000000    -8.081000000     0.946000000
H    -4.915000000    -8.145000000     1.622000000
H    -5.998000000    -7.228000000     1.094000000
