215
-1449.15693
C    -2.939000000     2.397000000     3.574000000
H    -2.953000000     3.140000000     2.781000000
C    -1.736000000     1.876000000     3.943000000
C    -1.702000000     0.979000000     4.984000000
H    -0.813000000     0.556000000     5.445000000
C    -0.450000000     2.382000000     3.342000000
O    -0.615000000     3.792000000     3.052000000
H    -0.341000000     1.817000000     2.404000000
O     0.676000000     2.155000000     4.165000000
C     1.902000000     1.788000000     3.584000000
C     2.315000000     0.511000000     3.716000000
H     1.674000000    -0.152000000     4.291000000
C     3.489000000     0.044000000     3.165000000
O     3.643000000    -1.324000000     3.220000000
C     4.302000000     0.898000000     2.363000000
C     5.532000000     0.359000000     1.658000000
H     6.209000000     1.169000000     1.377000000
C     5.095000000    -0.211000000     0.300000000
C     5.019000000     0.595000000    -0.853000000
H     5.231000000     1.652000000    -0.716000000
H     6.087000000    -0.316000000     2.313000000
C     3.899000000     2.235000000     2.260000000
H     4.482000000     2.888000000     1.615000000
C     2.733000000     2.682000000     2.897000000
C     2.234000000     4.115000000     2.669000000
H     3.113000000     4.745000000     2.519000000
H     1.902000000     4.455000000     3.652000000
C     1.233000000     4.283000000     1.563000000
C     1.733000000     4.464000000     0.295000000
H     2.813000000     4.475000000     0.170000000
C    -0.119000000     4.221000000     1.820000000
C    -1.071000000     4.303000000     0.804000000
H    -2.119000000     4.066000000     0.967000000
C    -0.569000000     4.574000000    -0.527000000
O    -1.356000000     4.647000000    -1.591000000
C    -1.545000000     3.374000000    -2.355000000
C    -2.949000000     2.954000000    -2.584000000
C    -3.102000000     1.806000000    -3.336000000
H    -2.329000000     1.255000000    -3.867000000
C    -3.949000000     3.390000000    -1.696000000
H    -3.653000000     4.248000000    -1.098000000
O    -0.839000000     3.350000000    -3.567000000
H    -1.092000000     2.583000000    -1.739000000
C     0.801000000     4.675000000    -0.730000000
C     1.336000000     4.847000000    -2.110000000
H     2.315000000     5.319000000    -2.005000000
H     0.741000000     5.615000000    -2.610000000
C     1.550000000     3.542000000    -2.867000000
C     2.818000000     2.984000000    -2.798000000
H     3.536000000     3.415000000    -2.105000000
C     0.517000000     2.930000000    -3.611000000
C     0.778000000     1.697000000    -4.165000000
H     0.013000000     1.132000000    -4.692000000
C     2.021000000     1.115000000    -3.999000000
O     2.230000000    -0.170000000    -4.533000000
C     2.102000000    -1.262000000    -3.593000000
C     1.189000000    -2.421000000    -3.890000000
C     0.050000000    -2.232000000    -4.628000000
H    -0.101000000    -1.262000000    -5.095000000
C     1.347000000    -3.709000000    -3.333000000
H     2.180000000    -3.928000000    -2.671000000
O     3.419000000    -1.742000000    -3.223000000
H     1.697000000    -0.825000000    -2.668000000
C     3.067000000     1.774000000    -3.416000000
C     4.471000000     1.181000000    -3.188000000
H     5.197000000     1.931000000    -2.869000000
H     4.892000000     0.739000000    -4.093000000
C     4.483000000     0.123000000    -2.019000000
C     4.057000000    -1.192000000    -2.133000000
C     4.077000000    -2.025000000    -1.015000000
H     3.575000000    -2.987000000    -1.062000000
C     4.533000000    -1.522000000     0.149000000
O     4.370000000    -2.345000000     1.221000000
C     3.223000000    -1.977000000     1.994000000
H     2.656000000    -1.294000000     1.343000000
C     2.358000000    -3.184000000     2.393000000
C     1.206000000    -2.966000000     3.137000000
H     0.909000000    -1.986000000     3.503000000
C     2.634000000    -4.421000000     1.782000000
H     3.544000000    -4.551000000     1.203000000
C     1.805000000    -5.489000000     2.067000000
O     1.862000000    -6.728000000     1.490000000
C     0.654000000    -5.375000000     2.925000000
H     0.009000000    -6.207000000     3.196000000
C     0.452000000    -4.123000000     3.479000000
O    -0.717000000    -4.046000000     4.299000000
C    -0.729000000    -3.296000000     5.419000000
C    -1.726000000    -2.308000000     5.379000000
H    -2.492000000    -2.274000000     4.609000000
C     0.305000000    -3.220000000     6.291000000
H     1.133000000    -3.887000000     6.066000000
C     0.232000000    -2.241000000     7.327000000
H     1.127000000    -2.182000000     7.941000000
C    -0.800000000    -1.362000000     7.408000000
H    -1.022000000    -0.663000000     8.210000000
C    -1.815000000    -1.377000000     6.426000000
O    -2.828000000    -0.432000000     6.451000000
C    -2.864000000     0.506000000     5.487000000
C    -4.095000000     1.001000000     5.052000000
H    -5.052000000     0.592000000     5.364000000
C    -4.102000000     1.996000000     4.122000000
O    -5.329000000     2.669000000     3.952000000
C    -5.703000000     3.441000000     2.832000000
C    -5.645000000     2.919000000     1.480000000
H    -5.319000000     1.886000000     1.392000000
C    -6.277000000     4.692000000     2.979000000
H    -6.273000000     4.983000000     4.027000000
C    -6.754000000     5.444000000     1.905000000
H    -7.168000000     6.431000000     2.096000000
C    -6.684000000     4.861000000     0.578000000
H    -7.095000000     5.476000000    -0.218000000
C    -6.093000000     3.615000000     0.350000000
O    -6.201000000     3.066000000    -0.863000000
C    -5.141000000     2.769000000    -1.653000000
C    -5.393000000     1.700000000    -2.496000000
H    -6.340000000     1.176000000    -2.602000000
C    -4.327000000     1.220000000    -3.346000000
O    -4.645000000     0.038000000    -4.010000000
C    -3.937000000    -0.379000000    -5.124000000
C    -3.235000000    -1.557000000    -4.986000000
H    -3.155000000    -2.112000000    -4.055000000
C    -3.790000000     0.401000000    -6.285000000
H    -4.269000000     1.367000000    -6.419000000
C    -3.095000000    -0.071000000    -7.458000000
H    -3.136000000     0.510000000    -8.376000000
C    -2.442000000    -1.350000000    -7.349000000
H    -1.851000000    -1.817000000    -8.133000000
C    -2.497000000    -2.007000000    -6.107000000
O    -1.767000000    -3.104000000    -5.927000000
C    -0.768000000    -3.262000000    -5.063000000
C    -0.517000000    -4.556000000    -4.526000000
H    -1.185000000    -5.376000000    -4.777000000
C     0.494000000    -4.768000000    -3.621000000
O     0.702000000    -6.020000000    -3.086000000
C     1.658000000    -6.252000000    -2.139000000
C     2.774000000    -6.863000000    -2.547000000
H     3.012000000    -6.816000000    -3.607000000
C     3.611000000    -7.496000000    -1.600000000
H     4.602000000    -7.871000000    -1.845000000
C     3.291000000    -7.412000000    -0.261000000
H     3.953000000    -7.846000000     0.484000000
C     2.146000000    -6.735000000     0.152000000
C     1.312000000    -6.222000000    -0.778000000
H     0.323000000    -5.861000000    -0.509000000
C    -3.754000000    -0.984000000    -0.636000000
H    -4.432000000    -1.213000000    -1.454000000
C    -2.436000000    -0.856000000    -0.951000000
H    -2.105000000    -0.972000000    -1.980000000
C    -1.472000000    -0.624000000     0.020000000
H    -0.354000000    -0.457000000    -0.314000000
C    -1.848000000    -0.566000000     1.350000000
H    -1.143000000    -0.449000000     2.169000000
C    -3.216000000    -0.693000000     1.687000000
H    -3.543000000    -0.584000000     2.718000000
C    -4.192000000    -0.892000000     0.664000000
C    -5.654000000    -0.993000000     1.042000000
O    -6.036000000    -0.813000000     2.136000000
O    -6.489000000    -1.218000000     0.150000000
O    -4.416000000    -3.176000000     2.861000000
H    -4.872000000    -3.897000000     2.429000000
H    -4.902000000    -2.394000000     2.600000000
O    -8.065000000     0.676000000     3.064000000
H    -7.336000000     0.126000000     2.779000000
H    -8.515000000     0.917000000     2.255000000
O    -3.760000000    -5.790000000    -0.756000000
H    -3.196000000    -5.017000000    -0.773000000
H    -3.180000000    -6.504000000    -0.489000000
O    -8.908000000    -2.697000000     3.587000000
H    -8.755000000    -2.279000000     2.739000000
H    -9.194000000    -3.584000000     3.369000000
O   -11.713000000    -1.542000000     0.600000000
H   -11.091000000    -2.008000000     0.040000000
H   -12.214000000    -2.235000000     1.029000000
O    -5.144000000    -4.824000000    -2.977000000
H    -4.733000000    -5.352000000    -2.292000000
H    -5.658000000    -4.172000000    -2.501000000
O    -7.094000000    -0.538000000     7.142000000
H    -7.003000000    -0.854000000     6.243000000
H    -7.761000000     0.146000000     7.089000000
O    -9.779000000     3.553000000     1.711000000
H    -9.479000000     2.831000000     1.159000000
H    -9.313000000     3.431000000     2.538000000
O    -2.123000000    -3.782000000    -0.655000000
H    -1.966000000    -3.820000000     0.289000000
H    -2.315000000    -2.861000000    -0.829000000
O    -5.517000000    -5.573000000     2.095000000
H    -5.428000000    -6.211000000     1.386000000
H    -6.413000000    -5.692000000     2.412000000
O    -2.137000000    -4.996000000     2.056000000
H    -3.014000000    -4.617000000     2.115000000
H    -1.713000000    -4.749000000     2.878000000
O    -8.726000000     2.965000000     4.237000000
H    -8.137000000     2.297000000     3.888000000
H    -8.893000000     2.690000000     5.138000000
O    -8.580000000     1.414000000     0.359000000
H    -8.163000000     0.553000000     0.330000000
H    -8.086000000     1.940000000    -0.270000000
O    -8.393000000    -2.640000000     0.868000000
H    -8.290000000    -3.429000000     0.335000000
H    -7.724000000    -2.040000000     0.539000000
O    -6.822000000    -3.030000000    -1.859000000
H    -7.544000000    -2.810000000    -2.448000000
H    -6.736000000    -2.265000000    -1.290000000
O   -10.161000000    -0.503000000    -1.796000000
H    -9.735000000    -0.485000000    -0.939000000
H   -10.402000000     0.409000000    -1.963000000
O    -6.444000000    -1.712000000     4.766000000
H    -6.125000000    -1.367000000     3.932000000
H    -7.261000000    -2.157000000     4.544000000
O    -4.965000000    -4.179000000     6.165000000
H    -4.770000000    -3.807000000     5.305000000
H    -5.015000000    -3.422000000     6.748000000
O    -8.640000000    -2.054000000    -3.700000000
H    -9.461000000    -1.817000000    -3.268000000
H    -8.182000000    -1.222000000    -3.816000000
