215
-1427.49033
C    -2.350000000     3.677000000     3.576000000
H    -2.401000000     4.460000000     2.823000000
C    -1.176000000     3.020000000     3.834000000
C    -1.212000000     1.971000000     4.695000000
H    -0.271000000     1.454000000     4.866000000
C     0.070000000     3.216000000     2.949000000
O     0.087000000     4.524000000     2.395000000
H    -0.005000000     2.516000000     2.103000000
O     1.261000000     3.045000000     3.742000000
C     2.245000000     2.374000000     3.030000000
C     2.410000000     1.037000000     3.418000000
H     1.772000000     0.533000000     4.139000000
C     3.476000000     0.286000000     2.920000000
O     3.597000000    -1.059000000     3.204000000
C     4.375000000     0.939000000     2.047000000
C     5.461000000     0.165000000     1.291000000
H     6.262000000     0.887000000     1.117000000
C     4.932000000    -0.513000000     0.030000000
C     4.846000000     0.183000000    -1.127000000
H     5.205000000     1.206000000    -1.206000000
H     5.879000000    -0.588000000     1.962000000
C     4.201000000     2.224000000     1.648000000
H     5.023000000     2.560000000     1.021000000
C     3.135000000     2.960000000     2.120000000
C     2.989000000     4.459000000     1.557000000
H     3.854000000     4.844000000     1.013000000
H     2.883000000     5.132000000     2.410000000
C     1.774000000     4.562000000     0.681000000
C     2.045000000     4.435000000    -0.721000000
H     3.033000000     4.316000000    -1.158000000
C     0.437000000     4.633000000     1.103000000
C    -0.577000000     4.690000000     0.157000000
H    -1.625000000     4.640000000     0.443000000
C    -0.301000000     4.595000000    -1.193000000
O    -1.302000000     4.347000000    -2.029000000
C    -1.473000000     2.984000000    -2.436000000
C    -2.943000000     2.491000000    -2.457000000
C    -3.387000000     1.723000000    -3.543000000
H    -2.643000000     1.479000000    -4.297000000
C    -3.719000000     2.608000000    -1.349000000
H    -3.452000000     3.139000000    -0.438000000
O    -0.926000000     2.908000000    -3.787000000
H    -0.933000000     2.331000000    -1.735000000
C     1.044000000     4.483000000    -1.621000000
C     1.440000000     4.522000000    -3.042000000
H     2.351000000     5.075000000    -3.281000000
H     0.597000000     5.011000000    -3.535000000
C     1.509000000     3.093000000    -3.493000000
C     2.772000000     2.443000000    -3.432000000
H     3.702000000     2.876000000    -3.072000000
C     0.339000000     2.464000000    -4.012000000
C     0.523000000     1.171000000    -4.407000000
H    -0.329000000     0.656000000    -4.842000000
C     1.793000000     0.487000000    -4.340000000
O     1.794000000    -0.892000000    -4.606000000
C     1.756000000    -1.710000000    -3.454000000
C     0.718000000    -2.829000000    -3.446000000
C    -0.412000000    -2.691000000    -4.233000000
H    -0.511000000    -1.883000000    -4.953000000
C     0.877000000    -3.953000000    -2.659000000
H     1.802000000    -4.023000000    -2.093000000
O     3.030000000    -2.299000000    -3.139000000
H     1.494000000    -1.098000000    -2.578000000
C     2.887000000     1.099000000    -3.800000000
C     4.236000000     0.261000000    -3.631000000
H     5.143000000     0.857000000    -3.754000000
H     4.333000000    -0.457000000    -4.448000000
C     4.165000000    -0.382000000    -2.240000000
C     3.618000000    -1.684000000    -2.100000000
C     3.719000000    -2.383000000    -0.953000000
H     3.329000000    -3.394000000    -0.871000000
C     4.399000000    -1.842000000     0.106000000
O     4.182000000    -2.427000000     1.340000000
C     3.109000000    -1.937000000     2.139000000
H     2.645000000    -1.317000000     1.358000000
C     2.299000000    -3.075000000     2.673000000
C     1.188000000    -2.729000000     3.436000000
H     0.983000000    -1.689000000     3.677000000
C     2.542000000    -4.419000000     2.313000000
H     3.416000000    -4.641000000     1.706000000
C     1.725000000    -5.463000000     2.746000000
O     1.855000000    -6.776000000     2.298000000
C     0.687000000    -5.112000000     3.658000000
H    -0.015000000    -5.886000000     3.959000000
C     0.396000000    -3.815000000     3.960000000
O    -0.727000000    -3.585000000     4.812000000
C    -0.674000000    -2.586000000     5.757000000
C    -1.503000000    -1.495000000     5.744000000
H    -2.131000000    -1.522000000     4.857000000
C     0.263000000    -2.750000000     6.816000000
H     0.881000000    -3.644000000     6.825000000
C     0.352000000    -1.804000000     7.855000000
H     1.044000000    -1.993000000     8.672000000
C    -0.329000000    -0.591000000     7.668000000
H    -0.290000000     0.157000000     8.456000000
C    -1.251000000    -0.400000000     6.581000000
O    -2.118000000     0.711000000     6.581000000
C    -2.275000000     1.609000000     5.514000000
C    -3.440000000     2.318000000     5.338000000
H    -4.308000000     2.032000000     5.928000000
C    -3.521000000     3.323000000     4.343000000
O    -4.659000000     3.999000000     4.065000000
C    -5.319000000     4.134000000     2.892000000
C    -5.321000000     3.044000000     1.994000000
H    -4.726000000     2.157000000     2.194000000
C    -6.045000000     5.277000000     2.600000000
H    -6.116000000     6.064000000     3.347000000
C    -6.750000000     5.402000000     1.346000000
H    -7.317000000     6.325000000     1.261000000
C    -6.548000000     4.342000000     0.409000000
H    -7.083000000     4.357000000    -0.537000000
C    -5.894000000     3.173000000     0.716000000
O    -5.904000000     2.122000000    -0.220000000
C    -5.053000000     2.064000000    -1.318000000
C    -5.455000000     1.445000000    -2.466000000
H    -6.465000000     1.051000000    -2.547000000
C    -4.658000000     1.157000000    -3.574000000
O    -5.126000000     0.299000000    -4.543000000
C    -4.254000000    -0.370000000    -5.274000000
C    -3.779000000    -1.582000000    -4.845000000
H    -4.102000000    -1.939000000    -3.870000000
C    -4.077000000     0.011000000    -6.596000000
H    -4.482000000     0.910000000    -7.054000000
C    -3.234000000    -0.727000000    -7.396000000
H    -2.796000000    -0.381000000    -8.329000000
C    -2.663000000    -1.846000000    -6.903000000
H    -1.947000000    -2.401000000    -7.503000000
C    -2.983000000    -2.334000000    -5.637000000
O    -2.531000000    -3.528000000    -5.100000000
C    -1.413000000    -3.603000000    -4.225000000
C    -1.208000000    -4.771000000    -3.432000000
H    -2.040000000    -5.458000000    -3.302000000
C    -0.050000000    -5.018000000    -2.724000000
O    -0.028000000    -6.070000000    -1.881000000
C     1.043000000    -6.512000000    -1.195000000
C     2.064000000    -7.284000000    -1.802000000
H     2.056000000    -7.546000000    -2.857000000
C     3.073000000    -7.812000000    -1.019000000
H     4.020000000    -7.878000000    -1.548000000
C     3.074000000    -7.649000000     0.348000000
H     3.903000000    -8.107000000     0.882000000
C     2.037000000    -6.942000000     0.948000000
C     0.967000000    -6.454000000     0.171000000
H     0.112000000    -5.936000000     0.599000000
C    -2.712000000    -0.656000000    -0.392000000
H    -3.414000000    -0.971000000    -1.160000000
C    -1.467000000    -0.073000000    -0.853000000
H    -1.338000000    -0.007000000    -1.930000000
C    -0.492000000     0.303000000     0.082000000
H     0.458000000     0.621000000    -0.276000000
C    -0.724000000     0.237000000     1.446000000
H     0.046000000     0.611000000     2.116000000
C    -1.962000000    -0.313000000     1.846000000
H    -2.067000000    -0.450000000     2.919000000
C    -2.964000000    -0.747000000     0.964000000
C    -4.253000000    -1.256000000     1.493000000
O    -4.532000000    -1.242000000     2.688000000
O    -5.000000000    -1.676000000     0.671000000
O    -4.637000000    -3.612000000     4.159000000
H    -5.549000000    -3.897000000     4.102000000
H    -4.617000000    -2.779000000     3.687000000
O    -5.876000000    -0.110000000     4.565000000
H    -5.343000000    -0.510000000     3.878000000
H    -6.719000000    -0.560000000     4.506000000
O    -3.005000000    -4.939000000    -0.917000000
H    -2.186000000    -4.469000000    -0.761000000
H    -2.817000000    -5.840000000    -0.657000000
O    -7.061000000    -4.278000000     3.328000000
H    -7.087000000    -4.021000000     2.407000000
H    -7.978000000    -4.279000000     3.604000000
O    -2.193000000    -6.708000000     1.180000000
H    -2.722000000    -7.377000000     1.616000000
H    -2.387000000    -5.901000000     1.656000000
O    -4.647000000    -4.341000000    -2.852000000
H    -3.893000000    -4.513000000    -2.288000000
H    -5.061000000    -3.567000000    -2.469000000
O    -5.383000000    -0.149000000     7.340000000
H    -5.242000000    -0.091000000     6.395000000
H    -6.074000000     0.489000000     7.520000000
O    -1.022000000    -3.211000000     0.056000000
H    -0.170000000    -2.997000000     0.436000000
H    -1.492000000    -2.377000000     0.038000000
O    -2.463000000    -4.692000000     2.977000000
H    -3.158000000    -4.306000000     3.510000000
H    -2.302000000    -4.046000000     2.289000000
O    -8.125000000     3.219000000     4.548000000
H    -7.268000000     3.011000000     4.175000000
H    -7.948000000     3.382000000     5.475000000
O    -7.352000000    -0.072000000     1.216000000
H    -6.773000000    -0.786000000     0.949000000
H    -6.760000000     0.610000000     1.534000000
O    -5.880000000    -5.762000000    -0.922000000
H    -5.760000000    -5.430000000    -1.812000000
H    -4.991000000    -5.894000000    -0.594000000
O    -7.125000000    -3.500000000     0.597000000
H    -6.840000000    -4.133000000    -0.062000000
H    -6.335000000    -2.999000000     0.804000000
O    -6.398000000    -6.728000000     3.464000000
H    -6.727000000    -6.697000000     2.565000000
H    -6.688000000    -5.903000000     3.853000000
O    -6.172000000    -1.810000000    -1.784000000
H    -7.002000000    -1.362000000    -1.621000000
H    -5.622000000    -1.577000000    -1.036000000
O    -9.193000000    -1.329000000     5.104000000
H    -9.245000000    -1.894000000     5.875000000
H    -9.356000000    -1.917000000     4.366000000
O    -9.830000000     0.370000000    -0.053000000
H    -9.070000000     0.215000000     0.509000000
H    -9.974000000     1.315000000    -0.005000000
O    -9.353000000    -3.718000000    -0.938000000
H    -8.715000000    -3.556000000    -0.243000000
H    -9.360000000    -2.909000000    -1.450000000
O    -3.264000000    -4.500000000     6.472000000
H    -2.415000000    -4.854000000     6.208000000
H    -3.574000000    -4.023000000     5.703000000
