215
-1445.79340
C    -2.636000000     2.794000000     3.242000000
H    -2.826000000     3.359000000     2.333000000
C    -1.322000000     2.493000000     3.593000000
C    -1.109000000     1.676000000     4.695000000
H    -0.117000000     1.343000000     4.987000000
C    -0.140000000     3.090000000     2.756000000
O    -0.506000000     4.345000000     2.242000000
H     0.094000000     2.442000000     1.898000000
O     0.954000000     3.263000000     3.622000000
C     2.131000000     2.738000000     3.225000000
C     2.550000000     1.426000000     3.623000000
H     1.946000000     0.849000000     4.319000000
C     3.674000000     0.832000000     2.955000000
O     4.026000000    -0.450000000     3.279000000
C     4.283000000     1.475000000     1.892000000
C     5.399000000     0.771000000     1.110000000
H     6.101000000     1.420000000     0.582000000
C     4.901000000    -0.046000000    -0.025000000
C     4.841000000     0.474000000    -1.359000000
H     5.413000000     1.398000000    -1.409000000
H     6.007000000     0.205000000     1.817000000
C     3.949000000     2.733000000     1.613000000
H     4.544000000     3.325000000     0.923000000
C     2.852000000     3.410000000     2.224000000
C     2.428000000     4.686000000     1.581000000
H     3.306000000     5.107000000     1.086000000
H     2.292000000     5.382000000     2.411000000
C     1.310000000     4.628000000     0.564000000
C     1.680000000     4.596000000    -0.802000000
H     2.719000000     4.430000000    -1.078000000
C    -0.037000000     4.549000000     0.946000000
C    -0.956000000     4.405000000    -0.075000000
H    -2.004000000     4.366000000     0.212000000
C    -0.668000000     4.463000000    -1.436000000
O    -1.682000000     4.147000000    -2.337000000
C    -1.781000000     2.818000000    -2.918000000
C    -3.096000000     2.171000000    -3.074000000
C    -3.446000000     1.473000000    -4.255000000
H    -2.757000000     1.378000000    -5.090000000
C    -3.914000000     2.132000000    -1.958000000
H    -3.578000000     2.443000000    -0.972000000
O    -1.131000000     2.849000000    -4.174000000
H    -1.183000000     2.137000000    -2.293000000
C     0.692000000     4.559000000    -1.783000000
C     1.199000000     4.488000000    -3.180000000
H     2.229000000     4.839000000    -3.271000000
H     0.639000000     5.176000000    -3.816000000
C     1.239000000     3.081000000    -3.691000000
C     2.479000000     2.479000000    -3.700000000
H     3.374000000     3.027000000    -3.416000000
C     0.147000000     2.331000000    -4.202000000
C     0.307000000     1.003000000    -4.605000000
H    -0.572000000     0.454000000    -4.933000000
C     1.501000000     0.370000000    -4.381000000
O     1.479000000    -0.981000000    -4.492000000
C     1.420000000    -1.685000000    -3.236000000
C     0.535000000    -2.906000000    -3.208000000
C    -0.449000000    -3.030000000    -4.185000000
H    -0.619000000    -2.312000000    -4.983000000
C     0.552000000    -3.837000000    -2.184000000
H     1.188000000    -3.811000000    -1.302000000
O     2.769000000    -2.064000000    -3.009000000
H     1.146000000    -1.040000000    -2.388000000
C     2.614000000     1.143000000    -4.008000000
C     3.915000000     0.450000000    -3.789000000
H     4.705000000     1.179000000    -3.980000000
H     3.955000000    -0.349000000    -4.532000000
C     4.065000000    -0.157000000    -2.355000000
C     3.557000000    -1.427000000    -2.082000000
C     3.806000000    -1.981000000    -0.867000000
H     3.447000000    -2.961000000    -0.565000000
C     4.313000000    -1.265000000     0.197000000
O     4.318000000    -1.819000000     1.468000000
C     3.393000000    -1.394000000     2.473000000
H     2.566000000    -0.835000000     2.009000000
C     2.747000000    -2.547000000     3.194000000
C     2.229000000    -2.354000000     4.460000000
H     2.047000000    -1.352000000     4.839000000
C     2.649000000    -3.805000000     2.613000000
H     3.037000000    -3.981000000     1.612000000
C     2.133000000    -4.862000000     3.405000000
O     2.076000000    -6.130000000     2.841000000
C     1.795000000    -4.675000000     4.678000000
H     1.560000000    -5.506000000     5.338000000
C     1.762000000    -3.380000000     5.249000000
O     1.218000000    -3.264000000     6.505000000
C     0.821000000    -2.074000000     6.937000000
C    -0.293000000    -1.509000000     6.360000000
H    -0.822000000    -2.036000000     5.570000000
C     1.432000000    -1.437000000     7.994000000
H     2.296000000    -1.895000000     8.470000000
C     1.094000000    -0.137000000     8.366000000
H     1.552000000     0.436000000     9.168000000
C     0.035000000     0.434000000     7.779000000
H    -0.351000000     1.364000000     8.189000000
C    -0.712000000    -0.275000000     6.823000000
O    -1.929000000     0.291000000     6.496000000
C    -2.177000000     1.161000000     5.419000000
C    -3.485000000     1.452000000     5.040000000
H    -4.313000000     1.077000000     5.636000000
C    -3.724000000     2.292000000     3.962000000
O    -5.003000000     2.658000000     3.598000000
C    -5.434000000     3.053000000     2.377000000
C    -5.466000000     2.111000000     1.268000000
H    -5.129000000     1.087000000     1.405000000
C    -5.875000000     4.356000000     2.187000000
H    -5.889000000     4.991000000     3.069000000
C    -6.472000000     4.731000000     0.994000000
H    -7.026000000     5.658000000     0.868000000
C    -6.387000000     3.885000000    -0.135000000
H    -6.888000000     4.154000000    -1.061000000
C    -5.951000000     2.560000000     0.062000000
O    -5.973000000     1.552000000    -0.930000000
C    -5.165000000     1.542000000    -2.032000000
C    -5.439000000     0.730000000    -3.147000000
H    -6.311000000     0.096000000    -3.009000000
C    -4.688000000     0.848000000    -4.329000000
O    -5.050000000     0.186000000    -5.473000000
C    -4.235000000    -0.806000000    -5.948000000
C    -3.749000000    -1.880000000    -5.146000000
H    -4.016000000    -1.876000000    -4.092000000
C    -4.172000000    -0.880000000    -7.370000000
H    -4.507000000    -0.048000000    -7.984000000
C    -3.492000000    -1.963000000    -7.975000000
H    -3.319000000    -1.955000000    -9.048000000
C    -2.878000000    -2.918000000    -7.152000000
H    -2.508000000    -3.766000000    -7.723000000
C    -2.982000000    -2.881000000    -5.762000000
O    -2.539000000    -3.969000000    -4.945000000
C    -1.397000000    -4.003000000    -4.145000000
C    -1.377000000    -4.921000000    -3.130000000
H    -2.191000000    -5.641000000    -3.116000000
C    -0.364000000    -4.889000000    -2.208000000
O    -0.339000000    -5.913000000    -1.219000000
C     0.770000000    -6.317000000    -0.582000000
C     1.845000000    -6.884000000    -1.251000000
H     1.774000000    -7.032000000    -2.326000000
C     2.979000000    -7.271000000    -0.526000000
H     3.795000000    -7.775000000    -1.036000000
C     3.072000000    -7.002000000     0.826000000
H     4.032000000    -7.266000000     1.262000000
C     2.016000000    -6.345000000     1.490000000
C     0.868000000    -6.013000000     0.782000000
H     0.031000000    -5.477000000     1.221000000
C    -2.345000000    -0.797000000     0.379000000
H    -3.284000000    -1.078000000    -0.091000000
C    -1.294000000    -0.133000000    -0.261000000
H    -1.401000000     0.199000000    -1.291000000
C    -0.205000000     0.154000000     0.452000000
H     0.605000000     0.747000000     0.023000000
C    -0.032000000    -0.210000000     1.804000000
H     0.899000000    -0.034000000     2.337000000
C    -1.116000000    -0.768000000     2.464000000
H    -1.044000000    -1.167000000     3.472000000
C    -2.254000000    -1.137000000     1.753000000
C    -3.379000000    -1.976000000     2.324000000
O    -3.258000000    -2.492000000     3.384000000
O    -4.380000000    -2.164000000     1.678000000
O    -7.608000000    -0.342000000     1.401000000
H    -7.572000000    -1.124000000     1.951000000
H    -7.185000000    -0.604000000     0.583000000
O    -7.052000000     1.172000000     5.027000000
H    -7.256000000     0.330000000     4.620000000
H    -6.572000000     1.654000000     4.354000000
O    -7.026000000    -4.892000000    -1.127000000
H    -7.025000000    -3.960000000    -0.911000000
H    -7.928000000    -5.173000000    -0.972000000
O    -5.846000000    -1.714000000    -0.350000000
H    -5.291000000    -1.683000000     0.429000000
H    -5.244000000    -1.920000000    -1.065000000
O    -4.669000000    -1.780000000     5.483000000
H    -3.937000000    -1.958000000     4.892000000
H    -5.449000000    -1.982000000     4.967000000
O    -6.839000000    -5.784000000     2.594000000
H    -6.335000000    -6.120000000     1.853000000
H    -7.557000000    -6.408000000     2.699000000
O    -5.657000000    -6.550000000     0.393000000
H    -5.505000000    -7.390000000    -0.039000000
H    -6.268000000    -6.090000000    -0.183000000
O    -3.984000000    -2.968000000    -1.780000000
H    -4.045000000    -3.707000000    -2.386000000
H    -3.299000000    -3.223000000    -1.161000000
O    -1.324000000    -8.454000000     2.824000000
H    -1.054000000    -8.790000000     3.679000000
H    -1.507000000    -7.527000000     2.978000000
O    -2.202000000    -6.130000000     2.942000000
H    -2.412000000    -5.613000000     2.164000000
H    -2.831000000    -5.837000000     3.601000000
O    -6.347000000    -3.282000000     3.241000000
H    -5.483000000    -3.025000000     2.917000000
H    -6.456000000    -4.184000000     2.941000000
O    -3.491000000    -4.606000000     0.543000000
H    -4.312000000    -5.014000000     0.268000000
H    -3.761000000    -3.837000000     1.044000000
O    -6.201000000    -5.641000000     5.895000000
H    -7.042000000    -5.274000000     5.622000000
H    -5.717000000    -5.765000000     5.079000000
O    -3.405000000    -6.488000000     6.593000000
H    -3.670000000    -5.954000000     5.843000000
H    -2.486000000    -6.263000000     6.734000000
O    -1.170000000    -4.880000000     7.192000000
H    -1.217000000    -4.140000000     6.586000000
H    -0.236000000    -5.084000000     7.249000000
O    -8.302000000    -1.766000000     4.039000000
H    -8.125000000    -1.913000000     4.968000000
H    -7.730000000    -2.385000000     3.585000000
O    -3.855000000    -4.678000000     4.699000000
H    -4.401000000    -4.160000000     5.291000000
H    -3.535000000    -4.047000000     4.054000000
O    -4.936000000    -2.725000000     8.062000000
H    -5.143000000    -2.313000000     7.224000000
H    -4.436000000    -2.062000000     8.538000000
O    -8.478000000    -3.133000000     0.744000000
H    -9.087000000    -3.866000000     0.647000000
H    -7.922000000    -3.379000000     1.483000000
