215
-1438.70950
C    -2.512000000     3.455000000     3.276000000
H    -2.765000000     4.209000000     2.535000000
C    -1.167000000     3.169000000     3.536000000
C    -0.903000000     2.223000000     4.479000000
H     0.132000000     1.901000000     4.554000000
C    -0.076000000     3.511000000     2.497000000
O    -0.345000000     4.730000000     1.775000000
H    -0.025000000     2.670000000     1.791000000
O     1.202000000     3.577000000     3.163000000
C     2.368000000     3.008000000     2.628000000
C     2.801000000     1.766000000     3.100000000
H     2.318000000     1.309000000     3.960000000
C     3.811000000     1.024000000     2.446000000
O     4.151000000    -0.215000000     2.997000000
C     4.320000000     1.533000000     1.300000000
C     5.506000000     0.882000000     0.603000000
H     6.176000000     1.637000000     0.186000000
C     4.876000000    -0.067000000    -0.408000000
C     4.751000000     0.322000000    -1.753000000
H     5.008000000     1.338000000    -2.041000000
H     6.105000000     0.450000000     1.407000000
C     3.868000000     2.778000000     0.851000000
H     4.292000000     3.116000000    -0.091000000
C     2.869000000     3.508000000     1.495000000
C     2.446000000     4.851000000     0.937000000
H     3.280000000     5.299000000     0.392000000
H     2.176000000     5.525000000     1.753000000
C     1.271000000     4.658000000    -0.005000000
C     1.517000000     4.442000000    -1.381000000
H     2.537000000     4.381000000    -1.751000000
C    -0.046000000     4.669000000     0.423000000
C    -1.111000000     4.373000000    -0.544000000
H    -2.116000000     4.165000000    -0.187000000
C    -0.807000000     4.114000000    -1.856000000
O    -1.893000000     3.777000000    -2.627000000
C    -1.999000000     2.383000000    -2.917000000
C    -3.431000000     1.933000000    -2.991000000
C    -3.976000000     1.200000000    -4.107000000
H    -3.450000000     1.061000000    -5.048000000
C    -4.240000000     2.136000000    -1.897000000
H    -3.764000000     2.633000000    -1.055000000
O    -1.466000000     2.217000000    -4.188000000
H    -1.385000000     1.808000000    -2.209000000
C     0.436000000     4.204000000    -2.316000000
C     0.740000000     4.050000000    -3.750000000
H     1.655000000     4.604000000    -3.968000000
H    -0.114000000     4.486000000    -4.273000000
C     0.906000000     2.605000000    -4.050000000
C     2.231000000     2.012000000    -4.033000000
H     3.106000000     2.641000000    -3.889000000
C    -0.145000000     1.738000000    -4.260000000
C     0.010000000     0.379000000    -4.482000000
H    -0.858000000    -0.237000000    -4.706000000
C     1.296000000    -0.171000000    -4.283000000
O     1.341000000    -1.570000000    -4.300000000
C     1.556000000    -2.210000000    -3.065000000
C     0.567000000    -3.335000000    -2.937000000
C    -0.651000000    -3.243000000    -3.537000000
H    -0.928000000    -2.353000000    -4.097000000
C     0.810000000    -4.420000000    -2.090000000
H     1.784000000    -4.450000000    -1.607000000
O     2.986000000    -2.527000000    -3.026000000
H     1.271000000    -1.584000000    -2.207000000
C     2.419000000     0.640000000    -4.247000000
C     3.781000000     0.063000000    -4.095000000
H     4.554000000     0.767000000    -4.410000000
H     3.807000000    -0.762000000    -4.810000000
C     4.105000000    -0.496000000    -2.672000000
C     3.737000000    -1.720000000    -2.230000000
C     4.005000000    -2.220000000    -0.976000000
H     3.615000000    -3.175000000    -0.634000000
C     4.523000000    -1.348000000    -0.048000000
O     4.607000000    -1.749000000     1.279000000
C     3.623000000    -1.330000000     2.284000000
H     2.793000000    -1.060000000     1.614000000
C     3.240000000    -2.399000000     3.305000000
C     2.705000000    -2.045000000     4.530000000
H     2.747000000    -1.012000000     4.867000000
C     3.162000000    -3.733000000     2.876000000
H     3.706000000    -3.924000000     1.955000000
C     2.381000000    -4.669000000     3.596000000
O     2.278000000    -5.992000000     3.296000000
C     1.940000000    -4.287000000     4.882000000
H     1.451000000    -5.007000000     5.533000000
C     2.068000000    -2.985000000     5.327000000
O     1.528000000    -2.688000000     6.537000000
C     1.043000000    -1.424000000     6.783000000
C    -0.106000000    -0.893000000     6.221000000
H    -0.775000000    -1.485000000     5.602000000
C     1.850000000    -0.580000000     7.642000000
H     2.720000000    -1.068000000     8.075000000
C     1.463000000     0.727000000     7.923000000
H     2.000000000     1.360000000     8.624000000
C     0.291000000     1.197000000     7.359000000
H    -0.224000000     2.135000000     7.547000000
C    -0.503000000     0.389000000     6.545000000
O    -1.708000000     0.764000000     6.166000000
C    -1.938000000     1.712000000     5.258000000
C    -3.257000000     2.032000000     5.018000000
H    -4.012000000     1.444000000     5.535000000
C    -3.569000000     2.924000000     3.988000000
O    -4.913000000     3.114000000     3.695000000
C    -5.441000000     3.507000000     2.390000000
C    -5.618000000     2.510000000     1.397000000
H    -5.413000000     1.454000000     1.548000000
C    -5.858000000     4.794000000     2.241000000
H    -5.863000000     5.449000000     3.109000000
C    -6.328000000     5.193000000     0.974000000
H    -6.426000000     6.263000000     0.810000000
C    -6.531000000     4.205000000     0.018000000
H    -6.871000000     4.517000000    -0.966000000
C    -6.147000000     2.890000000     0.170000000
O    -6.357000000     1.966000000    -0.785000000
C    -5.554000000     1.684000000    -1.924000000
C    -6.062000000     0.915000000    -2.936000000
H    -7.050000000     0.514000000    -2.723000000
C    -5.260000000     0.589000000    -3.981000000
O    -5.738000000    -0.256000000    -4.937000000
C    -4.841000000    -1.254000000    -5.381000000
C    -4.266000000    -2.105000000    -4.419000000
H    -4.627000000    -2.152000000    -3.395000000
C    -4.541000000    -1.449000000    -6.704000000
H    -5.051000000    -0.845000000    -7.451000000
C    -3.578000000    -2.388000000    -7.087000000
H    -3.249000000    -2.449000000    -8.121000000
C    -3.015000000    -3.280000000    -6.141000000
H    -2.309000000    -4.079000000    -6.354000000
C    -3.406000000    -3.152000000    -4.804000000
O    -2.976000000    -4.057000000    -3.854000000
C    -1.682000000    -4.225000000    -3.323000000
C    -1.420000000    -5.280000000    -2.490000000
H    -2.153000000    -6.057000000    -2.290000000
C    -0.144000000    -5.415000000    -1.945000000
O     0.076000000    -6.438000000    -0.971000000
C     1.152000000    -6.593000000    -0.142000000
C     2.315000000    -7.280000000    -0.552000000
H     2.429000000    -7.515000000    -1.608000000
C     3.294000000    -7.748000000     0.275000000
H     4.186000000    -8.231000000    -0.117000000
C     3.215000000    -7.387000000     1.566000000
H     4.083000000    -7.595000000     2.187000000
C     2.169000000    -6.517000000     2.056000000
C     1.151000000    -6.180000000     1.169000000
H     0.222000000    -5.762000000     1.550000000
C    -2.248000000    -1.362000000    -0.173000000
H    -2.904000000    -1.995000000    -0.765000000
C    -1.075000000    -0.777000000    -0.716000000
H    -0.864000000    -0.792000000    -1.782000000
C    -0.219000000    -0.142000000     0.138000000
H     0.688000000     0.373000000    -0.283000000
C    -0.518000000    -0.104000000     1.518000000
H     0.180000000     0.314000000     2.238000000
C    -1.642000000    -0.713000000     2.059000000
H    -1.780000000    -0.696000000     3.137000000
C    -2.528000000    -1.370000000     1.186000000
C    -3.699000000    -2.161000000     1.595000000
O    -3.872000000    -2.350000000     2.770000000
O    -4.410000000    -2.813000000     0.863000000
O    -8.814000000    -1.270000000    -1.216000000
H    -9.391000000    -1.979000000    -0.930000000
H    -7.933000000    -1.638000000    -1.150000000
O    -6.856000000    -1.127000000     1.615000000
H    -5.988000000    -1.529000000     1.599000000
H    -7.291000000    -1.464000000     0.832000000
O    -6.232000000    -2.784000000    -1.041000000
H    -5.704000000    -2.758000000    -0.243000000
H    -5.671000000    -3.215000000    -1.686000000
O    -4.047000000    -1.115000000     5.067000000
H    -4.099000000    -1.443000000     4.170000000
H    -4.254000000    -1.874000000     5.612000000
O    -8.982000000     1.655000000    -0.966000000
H    -8.036000000     1.685000000    -0.824000000
H    -9.183000000     0.723000000    -1.047000000
O    -6.551000000     0.170000000     4.311000000
H    -5.690000000    -0.165000000     4.561000000
H    -6.623000000    -0.029000000     3.377000000
O    -6.478000000    -5.029000000     0.750000000
H    -6.898000000    -5.886000000     0.678000000
H    -6.849000000    -4.519000000     0.031000000
O    -5.526000000    -8.342000000     1.373000000
H    -5.445000000    -8.715000000     0.495000000
H    -4.702000000    -7.876000000     1.512000000
O    -5.890000000    -6.627000000    -1.552000000
H    -5.738000000    -7.493000000    -1.930000000
H    -6.826000000    -6.472000000    -1.678000000
O    -1.524000000    -6.208000000     3.700000000
H    -1.132000000    -6.186000000     4.573000000
H    -1.448000000    -5.309000000     3.380000000
O    -2.388000000    -7.642000000     1.071000000
H    -2.724000000    -6.845000000     0.662000000
H    -1.992000000    -7.343000000     1.890000000
O    -5.762000000    -4.364000000     3.291000000
H    -5.378000000    -3.509000000     3.096000000
H    -6.163000000    -4.639000000     2.467000000
O    -3.829000000    -5.230000000     0.986000000
H    -4.769000000    -5.309000000     0.828000000
H    -3.688000000    -4.294000000     1.130000000
O    -4.506000000    -4.092000000     8.167000000
H    -4.949000000    -4.436000000     7.391000000
H    -4.596000000    -4.785000000     8.820000000
O    -4.227000000    -6.158000000     4.747000000
H    -3.317000000    -6.006000000     4.491000000
H    -4.743000000    -5.742000000     4.056000000
O    -9.549000000    -1.502000000     2.704000000
H    -8.641000000    -1.224000000     2.824000000
H    -9.519000000    -2.456000000     2.786000000
O    -1.474000000    -3.452000000     3.327000000
H    -2.366000000    -3.181000000     3.108000000
H    -0.920000000    -2.970000000     2.714000000
O    -7.127000000    -4.274000000     5.656000000
H    -6.913000000    -4.234000000     4.724000000
H    -7.232000000    -3.359000000     5.918000000
O    -9.827000000    -4.200000000     2.031000000
H   -10.565000000    -4.071000000     2.625000000
H    -9.380000000    -4.977000000     2.369000000
