215
-1439.70296
C    -2.579000000     3.343000000     3.082000000
H    -2.858000000     3.888000000     2.184000000
C    -1.239000000     3.165000000     3.354000000
C    -0.978000000     2.429000000     4.502000000
H     0.086000000     2.214000000     4.566000000
C    -0.113000000     3.510000000     2.386000000
O    -0.444000000     4.689000000     1.651000000
H     0.051000000     2.706000000     1.654000000
O     1.218000000     3.835000000     3.013000000
C     2.291000000     3.263000000     2.349000000
C     2.819000000     2.148000000     2.912000000
H     2.328000000     1.761000000     3.801000000
C     3.792000000     1.462000000     2.241000000
O     4.227000000     0.241000000     2.705000000
C     4.309000000     1.966000000     1.013000000
C     5.410000000     1.246000000     0.273000000
H     6.005000000     1.864000000    -0.403000000
C     4.723000000     0.129000000    -0.603000000
C     4.490000000     0.399000000    -1.981000000
H     4.693000000     1.402000000    -2.349000000
H     6.161000000     0.784000000     0.918000000
C     3.798000000     3.149000000     0.523000000
H     4.321000000     3.523000000    -0.353000000
C     2.819000000     3.854000000     1.247000000
C     2.307000000     5.168000000     0.645000000
H     3.043000000     5.612000000    -0.027000000
H     2.137000000     5.833000000     1.494000000
C     1.077000000     4.871000000    -0.264000000
C     1.250000000     4.587000000    -1.593000000
H     2.246000000     4.761000000    -1.992000000
C    -0.260000000     4.750000000     0.269000000
C    -1.283000000     4.357000000    -0.553000000
H    -2.265000000     4.115000000    -0.155000000
C    -1.035000000     4.032000000    -1.893000000
O    -2.131000000     3.556000000    -2.641000000
C    -2.226000000     2.156000000    -3.023000000
C    -3.615000000     1.572000000    -2.735000000
C    -3.997000000     0.423000000    -3.425000000
H    -3.396000000    -0.031000000    -4.209000000
C    -4.501000000     2.056000000    -1.710000000
H    -4.213000000     2.945000000    -1.155000000
O    -1.680000000     1.847000000    -4.318000000
H    -1.591000000     1.652000000    -2.280000000
C     0.236000000     4.093000000    -2.402000000
C     0.543000000     3.802000000    -3.915000000
H     1.428000000     4.401000000    -4.141000000
H    -0.330000000     4.168000000    -4.459000000
C     0.685000000     2.255000000    -4.092000000
C     1.951000000     1.775000000    -4.130000000
H     2.775000000     2.431000000    -3.863000000
C    -0.374000000     1.382000000    -4.367000000
C    -0.161000000     0.088000000    -4.659000000
H    -1.015000000    -0.578000000    -4.759000000
C     1.133000000    -0.494000000    -4.572000000
O     1.321000000    -1.889000000    -4.550000000
C     1.613000000    -2.530000000    -3.258000000
C     0.660000000    -3.710000000    -3.054000000
C    -0.574000000    -3.730000000    -3.687000000
H    -0.962000000    -2.990000000    -4.383000000
C     1.111000000    -4.740000000    -2.210000000
H     2.071000000    -4.597000000    -1.719000000
O     3.053000000    -2.826000000    -3.167000000
H     1.335000000    -1.941000000    -2.372000000
C     2.192000000     0.382000000    -4.328000000
C     3.647000000    -0.082000000    -4.241000000
H     4.324000000     0.694000000    -4.605000000
H     3.840000000    -0.933000000    -4.898000000
C     3.930000000    -0.542000000    -2.879000000
C     3.824000000    -1.876000000    -2.453000000
C     4.075000000    -2.123000000    -1.126000000
H     4.009000000    -3.109000000    -0.674000000
C     4.416000000    -1.161000000    -0.160000000
O     4.498000000    -1.547000000     1.186000000
C     3.590000000    -0.897000000     2.018000000
H     2.795000000    -0.475000000     1.386000000
C     2.916000000    -1.954000000     2.929000000
C     2.548000000    -1.550000000     4.202000000
H     2.618000000    -0.526000000     4.561000000
C     2.702000000    -3.335000000     2.581000000
H     3.001000000    -3.668000000     1.591000000
C     2.197000000    -4.239000000     3.554000000
O     2.201000000    -5.661000000     3.260000000
C     1.820000000    -3.834000000     4.790000000
H     1.482000000    -4.549000000     5.537000000
C     2.045000000    -2.480000000     5.103000000
O     1.752000000    -2.087000000     6.374000000
C     1.424000000    -0.817000000     6.712000000
C     0.135000000    -0.371000000     6.527000000
H    -0.598000000    -1.039000000     6.084000000
C     2.407000000     0.073000000     7.202000000
H     3.395000000    -0.363000000     7.323000000
C     2.036000000     1.366000000     7.621000000
H     2.771000000     2.077000000     7.990000000
C     0.688000000     1.794000000     7.455000000
H     0.435000000     2.821000000     7.709000000
C    -0.266000000     0.936000000     6.890000000
O    -1.506000000     1.379000000     6.565000000
C    -1.878000000     2.205000000     5.493000000
C    -3.148000000     2.419000000     5.201000000
H    -3.890000000     2.054000000     5.906000000
C    -3.522000000     2.949000000     4.021000000
O    -4.879000000     3.356000000     3.834000000
C    -5.410000000     3.652000000     2.640000000
C    -5.594000000     2.595000000     1.720000000
H    -5.320000000     1.608000000     2.084000000
C    -5.871000000     4.939000000     2.293000000
H    -5.677000000     5.803000000     2.924000000
C    -6.691000000     5.123000000     1.172000000
H    -7.037000000     6.142000000     1.022000000
C    -6.776000000     4.103000000     0.208000000
H    -7.363000000     4.246000000    -0.696000000
C    -6.233000000     2.841000000     0.480000000
O    -6.479000000     1.870000000    -0.465000000
C    -5.677000000     1.385000000    -1.399000000
C    -6.083000000     0.253000000    -2.070000000
H    -7.062000000    -0.199000000    -1.938000000
C    -5.231000000    -0.189000000    -3.072000000
O    -5.543000000    -1.436000000    -3.586000000
C    -4.834000000    -2.221000000    -4.413000000
C    -4.050000000    -3.254000000    -3.916000000
H    -3.933000000    -3.422000000    -2.848000000
C    -4.794000000    -1.876000000    -5.765000000
H    -5.254000000    -0.976000000    -6.167000000
C    -4.110000000    -2.783000000    -6.597000000
H    -4.066000000    -2.532000000    -7.654000000
C    -3.425000000    -3.837000000    -6.049000000
H    -2.895000000    -4.477000000    -6.750000000
C    -3.329000000    -4.049000000    -4.705000000
O    -2.550000000    -5.027000000    -4.140000000
C    -1.350000000    -4.880000000    -3.507000000
C    -0.986000000    -5.850000000    -2.608000000
H    -1.731000000    -6.616000000    -2.405000000
C     0.293000000    -5.850000000    -1.987000000
O     0.659000000    -6.853000000    -1.140000000
C     1.690000000    -6.634000000    -0.233000000
C     2.859000000    -7.401000000    -0.416000000
H     2.905000000    -8.000000000    -1.322000000
C     3.837000000    -7.538000000     0.603000000
H     4.707000000    -8.168000000     0.433000000
C     3.679000000    -6.898000000     1.844000000
H     4.367000000    -6.984000000     2.682000000
C     2.495000000    -6.131000000     2.030000000
C     1.571000000    -5.956000000     0.983000000
H     0.609000000    -5.470000000     1.127000000
C    -2.890000000    -0.642000000    -0.095000000
H    -3.719000000    -0.897000000    -0.750000000
C    -1.665000000    -0.350000000    -0.670000000
H    -1.561000000    -0.382000000    -1.751000000
C    -0.595000000     0.116000000     0.143000000
H     0.380000000     0.454000000    -0.346000000
C    -0.780000000     0.102000000     1.563000000
H    -0.005000000     0.377000000     2.274000000
C    -1.974000000    -0.291000000     2.131000000
H    -2.087000000    -0.219000000     3.210000000
C    -3.087000000    -0.636000000     1.309000000
C    -4.393000000    -1.096000000     1.939000000
O    -4.542000000    -1.129000000     3.205000000
O    -5.415000000    -1.325000000     1.259000000
O    -8.512000000    -3.768000000    -2.455000000
H    -8.727000000    -4.555000000    -1.954000000
H    -7.698000000    -3.450000000    -2.062000000
O    -9.203000000    -0.751000000    -0.801000000
H    -9.998000000    -0.875000000    -0.282000000
H    -9.418000000    -0.039000000    -1.403000000
O    -7.400000000    -2.091000000     2.894000000
H    -7.129000000    -2.960000000     3.190000000
H    -6.625000000    -1.731000000     2.462000000
O    -6.941000000    -2.534000000    -0.553000000
H    -6.323000000    -2.078000000     0.019000000
H    -7.725000000    -1.985000000    -0.543000000
O    -6.200000000     0.403000000     4.420000000
H    -5.610000000    -0.179000000     3.941000000
H    -6.258000000     1.187000000     3.874000000
O    -8.320000000     0.354000000     2.069000000
H    -8.053000000    -0.415000000     2.572000000
H    -7.920000000     0.228000000     1.208000000
O    -5.281000000    -3.831000000     3.721000000
H    -5.067000000    -2.940000000     3.442000000
H    -4.655000000    -4.020000000     4.420000000
O    -9.262000000     2.750000000     3.082000000
H    -8.914000000     1.962000000     2.663000000
H    -9.892000000     3.098000000     2.451000000
O    -4.485000000    -5.623000000    -1.750000000
H    -5.037000000    -6.295000000    -1.350000000
H    -4.323000000    -5.943000000    -2.638000000
O    -6.374000000    -5.764000000     2.248000000
H    -6.021000000    -5.226000000     2.957000000
H    -5.792000000    -5.596000000     1.507000000
O    -0.900000000    -6.399000000     3.717000000
H    -0.199000000    -5.965000000     4.205000000
H    -1.458000000    -5.683000000     3.412000000
O    -3.631000000    -2.323000000     6.024000000
H    -3.593000000    -1.663000000     5.332000000
H    -3.659000000    -3.158000000     5.557000000
O    -3.866000000    -3.973000000     0.171000000
H    -4.032000000    -4.569000000    -0.559000000
H    -4.546000000    -3.304000000     0.094000000
O   -10.444000000    -0.380000000     5.627000000
H   -10.554000000    -1.183000000     6.137000000
H    -9.506000000    -0.194000000     5.673000000
O    -3.180000000    -5.189000000     5.196000000
H    -2.325000000    -5.100000000     5.616000000
H    -3.677000000    -5.758000000     5.783000000
O   -10.158000000    -1.935000000     2.617000000
H    -9.898000000    -1.322000000     3.305000000
H    -9.362000000    -2.429000000     2.422000000
O    -1.744000000    -4.142000000     2.354000000
H    -1.224000000    -3.355000000     2.520000000
H    -2.383000000    -3.871000000     1.695000000
O    -5.961000000    -3.094000000     7.962000000
H    -6.649000000    -3.589000000     7.518000000
H    -5.372000000    -2.819000000     7.259000000
O    -7.976000000     0.371000000     6.448000000
H    -7.199000000     0.718000000     6.887000000
H    -7.672000000     0.140000000     5.571000000
