215
-1465.06047
C    -1.727000000     4.407000000     2.853000000
H    -2.034000000     4.868000000     1.917000000
C    -0.435000000     3.854000000     3.015000000
C    -0.043000000     3.241000000     4.232000000
H     0.976000000     2.880000000     4.340000000
C     0.486000000     3.880000000     1.781000000
O     0.161000000     4.814000000     0.742000000
H     0.360000000     2.855000000     1.402000000
O     1.884000000     4.046000000     2.198000000
C     2.864000000     3.254000000     1.580000000
C     3.349000000     2.195000000     2.411000000
H     2.871000000     1.952000000     3.356000000
C     4.231000000     1.250000000     1.872000000
O     4.379000000     0.114000000     2.557000000
C     4.680000000     1.454000000     0.545000000
C     5.523000000     0.415000000    -0.137000000
H     6.138000000     0.961000000    -0.856000000
C     4.652000000    -0.581000000    -0.860000000
C     4.394000000    -0.406000000    -2.231000000
H     4.945000000     0.403000000    -2.704000000
H     6.165000000     0.048000000     0.666000000
C     4.265000000     2.573000000    -0.196000000
H     4.576000000     2.731000000    -1.225000000
C     3.328000000     3.501000000     0.304000000
C     2.892000000     4.706000000    -0.458000000
H     3.663000000     4.947000000    -1.192000000
H     2.712000000     5.574000000     0.180000000
C     1.610000000     4.317000000    -1.199000000
C     1.704000000     3.881000000    -2.499000000
H     2.654000000     3.501000000    -2.866000000
C     0.375000000     4.449000000    -0.602000000
C    -0.809000000     4.186000000    -1.297000000
H    -1.785000000     4.305000000    -0.833000000
C    -0.703000000     3.906000000    -2.658000000
O    -1.852000000     3.531000000    -3.232000000
C    -2.160000000     2.112000000    -3.258000000
C    -3.461000000     1.643000000    -2.852000000
C    -4.184000000     0.684000000    -3.526000000
H    -3.872000000     0.307000000    -4.497000000
C    -3.980000000     2.137000000    -1.645000000
H    -3.367000000     2.754000000    -0.993000000
O    -1.715000000     1.486000000    -4.534000000
H    -1.486000000     1.715000000    -2.484000000
C     0.553000000     3.595000000    -3.231000000
C     0.622000000     3.142000000    -4.660000000
H     1.510000000     3.493000000    -5.190000000
H    -0.215000000     3.416000000    -5.305000000
C     0.687000000     1.605000000    -4.657000000
C     1.925000000     0.922000000    -4.690000000
H     2.851000000     1.482000000    -4.792000000
C    -0.487000000     0.887000000    -4.654000000
C    -0.527000000    -0.522000000    -4.601000000
H    -1.445000000    -1.104000000    -4.611000000
C     0.697000000    -1.216000000    -4.495000000
O     0.700000000    -2.591000000    -4.463000000
C     0.890000000    -3.013000000    -3.086000000
C    -0.107000000    -4.019000000    -2.652000000
C    -1.388000000    -4.184000000    -3.347000000
H    -1.509000000    -3.729000000    -4.326000000
C     0.022000000    -4.685000000    -1.428000000
H     1.005000000    -4.620000000    -0.969000000
O     2.272000000    -3.397000000    -2.855000000
H     0.616000000    -2.185000000    -2.417000000
C     1.904000000    -0.504000000    -4.558000000
C     3.235000000    -1.124000000    -4.379000000
H     4.103000000    -0.597000000    -4.780000000
H     3.228000000    -2.094000000    -4.880000000
C     3.552000000    -1.311000000    -2.861000000
C     2.957000000    -2.423000000    -2.129000000
C     3.212000000    -2.620000000    -0.781000000
H     2.778000000    -3.425000000    -0.193000000
C     4.032000000    -1.662000000    -0.167000000
O     4.285000000    -1.845000000     1.202000000
C     3.603000000    -0.983000000     2.090000000
H     2.746000000    -0.524000000     1.576000000
C     3.050000000    -1.781000000     3.269000000
C     2.786000000    -1.254000000     4.514000000
H     2.996000000    -0.196000000     4.649000000
C     2.737000000    -3.158000000     3.100000000
H     2.845000000    -3.588000000     2.107000000
C     2.305000000    -3.969000000     4.105000000
O     2.104000000    -5.345000000     3.883000000
C     2.044000000    -3.398000000     5.388000000
H     1.552000000    -3.926000000     6.201000000
C     2.286000000    -2.070000000     5.557000000
O     2.015000000    -1.517000000     6.766000000
C     1.834000000    -0.157000000     7.037000000
C     0.670000000     0.479000000     6.555000000
H    -0.066000000    -0.144000000     6.053000000
C     2.846000000     0.581000000     7.602000000
H     3.780000000     0.045000000     7.748000000
C     2.682000000     1.950000000     7.904000000
H     3.499000000     2.593000000     8.221000000
C     1.483000000     2.510000000     7.578000000
H     1.462000000     3.575000000     7.795000000
C     0.501000000     1.856000000     6.849000000
O    -0.717000000     2.500000000     6.488000000
C    -0.991000000     3.028000000     5.249000000
C    -2.242000000     3.598000000     5.054000000
H    -2.985000000     3.442000000     5.832000000
C    -2.634000000     4.226000000     3.902000000
O    -3.912000000     4.682000000     3.822000000
C    -4.610000000     4.572000000     2.637000000
C    -4.816000000     3.302000000     2.063000000
H    -4.457000000     2.372000000     2.498000000
C    -4.941000000     5.735000000     2.007000000
H    -4.813000000     6.714000000     2.463000000
C    -5.434000000     5.737000000     0.688000000
H    -5.715000000     6.651000000     0.172000000
C    -5.650000000     4.526000000     0.060000000
H    -6.101000000     4.549000000    -0.929000000
C    -5.354000000     3.333000000     0.762000000
O    -5.635000000     2.137000000     0.138000000
C    -5.168000000     1.721000000    -1.118000000
C    -5.780000000     0.616000000    -1.736000000
H    -6.752000000     0.243000000    -1.421000000
C    -5.274000000     0.163000000    -2.936000000
O    -5.865000000    -0.956000000    -3.530000000
C    -5.284000000    -1.968000000    -4.217000000
C    -4.616000000    -2.976000000    -3.546000000
H    -4.478000000    -2.969000000    -2.468000000
C    -5.734000000    -2.282000000    -5.516000000
H    -6.505000000    -1.719000000    -6.035000000
C    -5.283000000    -3.441000000    -6.163000000
H    -5.548000000    -3.583000000    -7.208000000
C    -4.464000000    -4.370000000    -5.511000000
H    -4.017000000    -5.238000000    -5.989000000
C    -4.228000000    -4.171000000    -4.120000000
O    -3.586000000    -5.107000000    -3.393000000
C    -2.407000000    -4.920000000    -2.780000000
C    -2.232000000    -5.453000000    -1.485000000
H    -3.096000000    -5.921000000    -1.020000000
C    -1.010000000    -5.411000000    -0.855000000
O    -0.817000000    -6.196000000     0.291000000
C     0.410000000    -6.480000000     0.859000000
C     1.271000000    -7.382000000     0.310000000
H     0.985000000    -8.011000000    -0.529000000
C     2.414000000    -7.726000000     1.007000000
H     3.036000000    -8.538000000     0.638000000
C     2.784000000    -7.031000000     2.168000000
H     3.728000000    -7.254000000     2.659000000
C     1.900000000    -6.058000000     2.662000000
C     0.708000000    -5.737000000     1.943000000
H    -0.017000000    -5.063000000     2.393000000
C    -2.610000000    -0.714000000     0.451000000
H    -3.500000000    -1.033000000    -0.086000000
C    -1.432000000    -0.371000000    -0.317000000
H    -1.515000000    -0.672000000    -1.358000000
C    -0.375000000     0.154000000     0.388000000
H     0.571000000     0.243000000    -0.095000000
C    -0.480000000     0.465000000     1.720000000
H     0.358000000     0.974000000     2.191000000
C    -1.585000000     0.157000000     2.448000000
H    -1.603000000     0.456000000     3.493000000
C    -2.681000000    -0.525000000     1.843000000
C    -3.925000000    -0.841000000     2.610000000
O    -3.917000000    -0.433000000     3.759000000
O    -4.826000000    -1.570000000     2.219000000
O    -8.023000000     1.591000000     2.023000000
H    -7.601000000     1.595000000     1.163000000
H    -8.960000000     1.633000000     1.830000000
O    -8.419000000    -2.778000000     3.424000000
H    -7.581000000    -3.241000000     3.450000000
H    -8.595000000    -2.654000000     2.491000000
O    -7.207000000    -1.793000000     1.129000000
H    -6.518000000    -1.484000000     1.717000000
H    -6.772000000    -2.432000000     0.565000000
O    -6.170000000     1.158000000     3.920000000
H    -6.569000000     1.094000000     3.052000000
H    -5.538000000     0.440000000     3.946000000
O    -3.738000000    -4.094000000     7.209000000
H    -3.607000000    -3.592000000     6.404000000
H    -4.675000000    -4.018000000     7.388000000
O    -5.012000000    -2.499000000     5.209000000
H    -5.503000000    -3.074000000     4.622000000
H    -4.826000000    -1.722000000     4.682000000
O    -6.112000000    -4.042000000    -0.690000000
H    -6.467000000    -4.107000000    -1.576000000
H    -6.789000000    -4.424000000    -0.131000000
O    -1.334000000    -2.314000000     4.916000000
H    -0.817000000    -2.484000000     4.128000000
H    -1.904000000    -1.584000000     4.675000000
O    -3.910000000    -5.840000000     4.694000000
H    -2.966000000    -5.965000000     4.791000000
H    -4.000000000    -4.954000000     4.345000000
O    -2.173000000    -1.198000000     7.986000000
H    -2.407000000    -2.121000000     7.885000000
H    -1.221000000    -1.203000000     8.090000000
O    -7.973000000    -0.962000000     6.266000000
H    -8.232000000    -1.414000000     5.463000000
H    -7.932000000    -0.038000000     6.018000000
O    -3.293000000     0.508000000     6.077000000
H    -3.659000000     0.239000000     5.235000000
H    -3.218000000    -0.305000000     6.577000000
O    -3.617000000    -4.013000000     1.879000000
H    -4.199000000    -4.552000000     1.344000000
H    -4.108000000    -3.205000000     2.028000000
O    -0.604000000    -3.212000000     7.286000000
H    -0.831000000    -2.936000000     6.398000000
H    -0.487000000    -4.160000000     7.219000000
O    -5.627000000     1.991000000     6.335000000
H    -4.721000000     1.693000000     6.416000000
H    -5.895000000     1.708000000     5.461000000
O    -5.586000000    -1.950000000     7.933000000
H    -6.469000000    -1.583000000     7.981000000
H    -5.380000000    -1.956000000     6.998000000
O    -0.972000000    -2.935000000     2.322000000
H    -1.156000000    -2.080000000     1.933000000
H    -1.778000000    -3.435000000     2.194000000
O    -6.054000000    -4.500000000     3.523000000
H    -6.124000000    -4.632000000     2.577000000
H    -6.071000000    -5.384000000     3.890000000
O    -9.519000000    -0.288000000     3.845000000
H    -8.760000000     0.143000000     3.454000000
H    -9.372000000    -1.221000000     3.690000000
