215
-1450.31481
C    -1.649000000     4.173000000     2.275000000
H    -2.039000000     4.222000000     1.261000000
C    -0.272000000     3.898000000     2.475000000
C     0.190000000     3.633000000     3.756000000
H     1.224000000     3.332000000     3.902000000
C     0.702000000     3.828000000     1.309000000
O     0.479000000     4.830000000     0.285000000
H     0.479000000     2.859000000     0.838000000
O     2.011000000     3.980000000     1.800000000
C     2.944000000     3.121000000     1.175000000
C     3.542000000     2.171000000     1.932000000
H     3.212000000     2.070000000     2.963000000
C     4.337000000     1.203000000     1.304000000
O     4.771000000     0.088000000     2.014000000
C     4.709000000     1.317000000    -0.080000000
C     5.509000000     0.213000000    -0.714000000
H     6.131000000     0.591000000    -1.529000000
C     4.665000000    -0.956000000    -1.214000000
C     4.121000000    -0.902000000    -2.489000000
H     4.266000000    -0.109000000    -3.218000000
H     6.250000000    -0.125000000     0.013000000
C     4.281000000     2.445000000    -0.743000000
H     4.602000000     2.663000000    -1.759000000
C     3.367000000     3.360000000    -0.151000000
C     2.997000000     4.542000000    -1.003000000
H     3.742000000     4.725000000    -1.780000000
H     2.825000000     5.345000000    -0.283000000
C     1.696000000     4.202000000    -1.694000000
C     1.655000000     3.596000000    -2.963000000
H     2.602000000     3.329000000    -3.425000000
C     0.465000000     4.459000000    -1.040000000
C    -0.758000000     4.150000000    -1.662000000
H    -1.697000000     4.303000000    -1.135000000
C    -0.775000000     3.578000000    -2.939000000
O    -2.026000000     3.233000000    -3.385000000
C    -2.274000000     1.820000000    -3.297000000
C    -3.692000000     1.446000000    -2.917000000
C    -4.377000000     0.331000000    -3.447000000
H    -3.913000000    -0.335000000    -4.171000000
C    -4.306000000     2.166000000    -1.922000000
H    -3.683000000     2.943000000    -1.487000000
O    -1.986000000     1.167000000    -4.554000000
H    -1.668000000     1.449000000    -2.458000000
C     0.432000000     3.210000000    -3.536000000
C     0.374000000     2.571000000    -4.898000000
H     1.284000000     2.841000000    -5.437000000
H    -0.469000000     2.799000000    -5.553000000
C     0.317000000     1.067000000    -4.756000000
C     1.461000000     0.259000000    -4.792000000
H     2.375000000     0.799000000    -5.022000000
C    -0.875000000     0.422000000    -4.618000000
C    -0.946000000    -0.973000000    -4.399000000
H    -1.883000000    -1.523000000    -4.366000000
C     0.169000000    -1.733000000    -4.372000000
O    -0.031000000    -3.042000000    -3.841000000
C     0.428000000    -3.229000000    -2.464000000
C    -0.421000000    -4.197000000    -1.679000000
C    -1.759000000    -4.087000000    -1.950000000
H    -2.135000000    -3.243000000    -2.523000000
C    -0.007000000    -5.129000000    -0.719000000
H     1.056000000    -5.194000000    -0.502000000
O     1.773000000    -3.741000000    -2.489000000
H     0.352000000    -2.287000000    -1.902000000
C     1.414000000    -1.081000000    -4.518000000
C     2.768000000    -1.845000000    -4.385000000
H     3.495000000    -1.448000000    -5.097000000
H     2.555000000    -2.875000000    -4.679000000
C     3.185000000    -1.818000000    -2.920000000
C     2.798000000    -2.897000000    -2.096000000
C     3.239000000    -2.931000000    -0.806000000
H     2.889000000    -3.731000000    -0.159000000
C     4.196000000    -2.005000000    -0.396000000
O     4.511000000    -2.012000000     0.943000000
C     3.891000000    -1.073000000     1.833000000
H     2.967000000    -0.752000000     1.330000000
C     3.434000000    -1.650000000     3.173000000
C     3.376000000    -0.822000000     4.311000000
H     3.728000000     0.202000000     4.222000000
C     2.938000000    -2.928000000     3.313000000
H     2.978000000    -3.465000000     2.368000000
C     2.457000000    -3.489000000     4.476000000
O     1.930000000    -4.737000000     4.542000000
C     2.427000000    -2.608000000     5.621000000
H     2.005000000    -3.032000000     6.529000000
C     2.878000000    -1.310000000     5.508000000
O     2.814000000    -0.512000000     6.679000000
C     2.557000000     0.837000000     6.592000000
C     1.266000000     1.284000000     6.336000000
H     0.463000000     0.557000000     6.245000000
C     3.506000000     1.770000000     6.885000000
H     4.532000000     1.450000000     7.052000000
C     3.243000000     3.143000000     6.866000000
H     4.067000000     3.840000000     6.993000000
C     1.982000000     3.534000000     6.589000000
H     1.833000000     4.607000000     6.496000000
C     0.950000000     2.661000000     6.356000000
O    -0.309000000     3.183000000     6.107000000
C    -0.703000000     3.596000000     4.815000000
C    -2.014000000     4.006000000     4.672000000
H    -2.673000000     4.185000000     5.518000000
C    -2.512000000     4.320000000     3.363000000
O    -3.866000000     4.550000000     3.218000000
C    -4.561000000     4.650000000     2.089000000
C    -4.889000000     3.479000000     1.463000000
H    -4.805000000     2.468000000     1.852000000
C    -4.758000000     5.900000000     1.510000000
H    -4.391000000     6.740000000     2.096000000
C    -5.442000000     6.006000000     0.295000000
H    -5.673000000     6.968000000    -0.157000000
C    -5.864000000     4.827000000    -0.278000000
H    -6.559000000     4.906000000    -1.109000000
C    -5.532000000     3.577000000     0.222000000
O    -6.080000000     2.508000000    -0.373000000
C    -5.627000000     1.895000000    -1.521000000
C    -6.319000000     0.897000000    -2.143000000
H    -7.373000000     0.719000000    -1.948000000
C    -5.711000000     0.028000000    -3.071000000
O    -6.339000000    -1.136000000    -3.596000000
C    -5.742000000    -2.307000000    -3.688000000
C    -5.231000000    -2.861000000    -2.537000000
H    -5.424000000    -2.384000000    -1.580000000
C    -5.762000000    -3.037000000    -4.877000000
H    -6.235000000    -2.469000000    -5.674000000
C    -5.072000000    -4.194000000    -4.977000000
H    -4.950000000    -4.658000000    -5.953000000
C    -4.458000000    -4.710000000    -3.839000000
H    -3.967000000    -5.675000000    -3.937000000
C    -4.596000000    -4.065000000    -2.587000000
O    -4.072000000    -4.619000000    -1.464000000
C    -2.738000000    -4.861000000    -1.313000000
C    -2.357000000    -5.810000000    -0.333000000
H    -3.087000000    -6.431000000     0.178000000
C    -0.962000000    -5.917000000    -0.095000000
O    -0.556000000    -6.729000000     0.956000000
C     0.626000000    -6.571000000     1.637000000
C     1.667000000    -7.372000000     1.232000000
H     1.582000000    -7.934000000     0.306000000
C     2.894000000    -7.283000000     1.910000000
H     3.731000000    -7.909000000     1.612000000
C     3.005000000    -6.417000000     3.013000000
H     3.944000000    -6.316000000     3.550000000
C     1.877000000    -5.669000000     3.504000000
C     0.685000000    -5.740000000     2.721000000
H    -0.192000000    -5.181000000     3.038000000
C    -3.221000000    -0.802000000    -0.161000000
H    -3.875000000    -1.408000000    -0.783000000
C    -1.853000000    -0.736000000    -0.619000000
H    -1.566000000    -1.095000000    -1.604000000
C    -0.909000000    -0.155000000     0.188000000
H     0.063000000     0.003000000    -0.068000000
C    -1.305000000     0.387000000     1.406000000
H    -0.580000000     0.946000000     1.992000000
C    -2.660000000     0.423000000     1.783000000
H    -2.998000000     0.857000000     2.720000000
C    -3.634000000    -0.147000000     0.979000000
C    -5.052000000    -0.398000000     1.457000000
O    -5.331000000     0.125000000     2.522000000
O    -5.910000000    -0.933000000     0.739000000
O    -6.632000000     0.930000000     4.443000000
H    -6.305000000     0.684000000     3.578000000
H    -5.867000000     1.284000000     4.896000000
O    -8.414000000    -0.429000000     1.143000000
H    -7.461000000    -0.501000000     1.094000000
H    -8.736000000    -1.229000000     0.726000000
O    -8.646000000     4.390000000     3.435000000
H    -8.487000000     3.831000000     2.675000000
H    -8.432000000     3.838000000     4.187000000
O   -10.898000000     2.054000000     3.424000000
H   -10.109000000     1.971000000     2.888000000
H   -10.574000000     2.082000000     4.324000000
O    -6.564000000    -3.533000000     1.304000000
H    -6.303000000    -2.651000000     1.040000000
H    -6.518000000    -4.048000000     0.499000000
O    -6.845000000    -5.733000000    -0.311000000
H    -7.667000000    -5.282000000    -0.506000000
H    -6.867000000    -5.873000000     0.636000000
O    -7.919000000    -1.106000000     5.606000000
H    -7.548000000    -1.845000000     5.124000000
H    -7.575000000    -0.332000000     5.160000000
O    -9.930000000    -2.940000000     0.455000000
H   -10.785000000    -2.641000000     0.146000000
H    -9.693000000    -3.648000000    -0.143000000
O    -4.556000000    -1.964000000     7.363000000
H    -4.444000000    -1.744000000     6.438000000
H    -4.061000000    -1.292000000     7.831000000
O    -2.425000000    -3.689000000     4.178000000
H    -3.021000000    -2.991000000     4.450000000
H    -2.443000000    -3.661000000     3.222000000
O    -6.914000000    -3.056000000     4.035000000
H    -7.088000000    -3.989000000     4.158000000
H    -6.649000000    -2.981000000     3.118000000
O    -8.260000000     2.218000000     1.842000000
H    -7.368000000     2.003000000     2.117000000
H    -8.592000000     1.409000000     1.454000000
O    -4.422000000    -1.605000000     4.538000000
H    -4.640000000    -0.856000000     3.983000000
H    -5.270000000    -1.966000000     4.796000000
O    -1.957000000     0.355000000     5.423000000
H    -2.664000000     0.637000000     6.003000000
H    -1.329000000     1.078000000     5.442000000
O   -10.500000000    -2.118000000     3.260000000
H   -10.085000000    -2.364000000     2.433000000
H   -10.097000000    -2.694000000     3.911000000
O    -8.462000000     2.384000000     5.252000000
H    -7.724000000     1.884000000     4.904000000
H    -8.419000000     2.248000000     6.199000000
O    -1.817000000    -3.164000000     1.227000000
H    -1.947000000    -2.216000000     1.212000000
H    -2.340000000    -3.489000000     0.493000000
O    -5.928000000    -6.010000000     2.326000000
H    -6.358000000    -6.091000000     3.177000000
H    -6.074000000    -5.099000000     2.070000000
O    -8.595000000     3.115000000    -1.571000000
H    -7.810000000     2.761000000    -1.154000000
H    -8.983000000     3.684000000    -0.906000000
