215
-1452.39029
C    -0.348000000     3.259000000     3.920000000
H    -0.517000000     4.201000000     3.405000000
C     0.676000000     2.377000000     3.624000000
C     0.819000000     1.187000000     4.295000000
H     1.500000000     0.410000000     3.957000000
C     1.572000000     2.781000000     2.503000000
O     1.524000000     4.160000000     2.166000000
H     1.347000000     2.202000000     1.596000000
O     2.868000000     2.439000000     2.876000000
C     3.665000000     1.717000000     1.973000000
C     3.964000000     0.391000000     2.256000000
H     3.790000000     0.043000000     3.271000000
C     4.392000000    -0.444000000     1.260000000
O     4.393000000    -1.773000000     1.539000000
C     4.808000000     0.110000000     0.047000000
C     5.475000000    -0.715000000    -1.064000000
H     6.192000000    -0.219000000    -1.721000000
C     4.372000000    -1.263000000    -1.901000000
C     3.841000000    -0.467000000    -2.902000000
H     4.221000000     0.539000000    -3.060000000
H     5.999000000    -1.581000000    -0.655000000
C     4.695000000     1.452000000    -0.257000000
H     5.023000000     1.863000000    -1.209000000
C     3.984000000     2.289000000     0.674000000
C     3.874000000     3.775000000     0.403000000
H     4.649000000     4.089000000    -0.300000000
H     4.064000000     4.331000000     1.324000000
C     2.476000000     4.243000000    -0.047000000
C     2.262000000     4.332000000    -1.410000000
H     3.145000000     4.412000000    -2.039000000
C     1.436000000     4.430000000     0.845000000
C     0.153000000     4.700000000     0.369000000
H    -0.672000000     4.767000000     1.074000000
C    -0.050000000     4.774000000    -1.018000000
O    -1.336000000     4.865000000    -1.476000000
C    -1.876000000     3.596000000    -1.982000000
C    -3.285000000     3.393000000    -1.329000000
C    -4.244000000     2.730000000    -2.085000000
H    -4.050000000     2.407000000    -3.105000000
C    -3.578000000     3.747000000    -0.090000000
H    -2.806000000     4.150000000     0.561000000
O    -1.853000000     3.358000000    -3.432000000
H    -1.307000000     2.748000000    -1.575000000
C     1.000000000     4.609000000    -1.923000000
C     0.772000000     4.455000000    -3.415000000
H     1.699000000     4.836000000    -3.850000000
H    -0.055000000     5.081000000    -3.754000000
C     0.540000000     3.037000000    -3.751000000
C     1.592000000     2.144000000    -4.149000000
H     2.654000000     2.356000000    -4.057000000
C    -0.804000000     2.602000000    -3.858000000
C    -1.074000000     1.266000000    -4.143000000
H    -2.129000000     1.005000000    -4.097000000
C    -0.095000000     0.383000000    -4.403000000
O    -0.482000000    -0.948000000    -4.682000000
C    -0.175000000    -1.997000000    -3.689000000
C    -1.354000000    -2.883000000    -3.310000000
C    -2.674000000    -2.377000000    -3.425000000
H    -2.830000000    -1.419000000    -3.914000000
C    -1.117000000    -4.192000000    -2.830000000
H    -0.111000000    -4.602000000    -2.773000000
O     1.063000000    -2.678000000    -3.962000000
H     0.067000000    -1.355000000    -2.829000000
C     1.217000000     0.817000000    -4.479000000
C     2.362000000    -0.125000000    -4.855000000
H     3.132000000     0.494000000    -5.319000000
H     2.025000000    -0.833000000    -5.615000000
C     2.799000000    -0.940000000    -3.675000000
C     2.249000000    -2.198000000    -3.338000000
C     2.633000000    -2.985000000    -2.235000000
H     2.194000000    -3.954000000    -2.016000000
C     3.801000000    -2.518000000    -1.595000000
O     4.098000000    -3.138000000    -0.467000000
C     3.490000000    -2.557000000     0.749000000
H     2.654000000    -1.915000000     0.438000000
C     2.867000000    -3.648000000     1.594000000
C     2.783000000    -3.458000000     2.986000000
H     3.277000000    -2.630000000     3.489000000
C     2.195000000    -4.742000000     0.994000000
H     2.307000000    -4.866000000    -0.080000000
C     1.697000000    -5.729000000     1.867000000
O     1.206000000    -6.848000000     1.371000000
C     1.622000000    -5.487000000     3.208000000
H     1.154000000    -6.242000000     3.835000000
C     2.205000000    -4.385000000     3.789000000
O     2.147000000    -4.322000000     5.135000000
C     2.078000000    -3.172000000     5.857000000
C     1.062000000    -2.249000000     5.637000000
H     0.269000000    -2.486000000     4.931000000
C     3.143000000    -2.870000000     6.706000000
H     3.853000000    -3.654000000     6.957000000
C     3.186000000    -1.664000000     7.318000000
H     3.930000000    -1.377000000     8.057000000
C     2.080000000    -0.835000000     7.227000000
H     1.936000000     0.003000000     7.905000000
C     1.095000000    -1.083000000     6.349000000
O     0.035000000    -0.236000000     6.161000000
C     0.066000000     0.924000000     5.424000000
C    -0.985000000     1.857000000     5.762000000
H    -1.764000000     1.540000000     6.450000000
C    -1.177000000     2.937000000     4.990000000
O    -2.130000000     3.858000000     5.355000000
C    -2.855000000     4.677000000     4.493000000
C    -3.528000000     4.090000000     3.437000000
H    -3.457000000     3.015000000     3.287000000
C    -2.804000000     6.073000000     4.650000000
H    -2.278000000     6.644000000     5.411000000
C    -3.632000000     6.844000000     3.754000000
H    -3.653000000     7.930000000     3.798000000
C    -4.376000000     6.184000000     2.785000000
H    -4.895000000     6.876000000     2.127000000
C    -4.320000000     4.811000000     2.579000000
O    -5.216000000     4.159000000     1.680000000
C    -4.837000000     3.502000000     0.506000000
C    -5.788000000     2.868000000    -0.262000000
H    -6.748000000     2.555000000     0.139000000
C    -5.495000000     2.493000000    -1.587000000
O    -6.487000000     1.861000000    -2.236000000
C    -6.222000000     0.809000000    -3.036000000
C    -5.697000000    -0.364000000    -2.440000000
H    -5.560000000    -0.391000000    -1.362000000
C    -6.278000000     1.020000000    -4.416000000
H    -6.654000000     1.971000000    -4.783000000
C    -5.867000000    -0.026000000    -5.306000000
H    -6.073000000     0.121000000    -6.363000000
C    -5.392000000    -1.211000000    -4.801000000
H    -5.104000000    -1.991000000    -5.501000000
C    -5.314000000    -1.395000000    -3.377000000
O    -5.004000000    -2.642000000    -2.933000000
C    -3.724000000    -3.175000000    -2.939000000
C    -3.490000000    -4.483000000    -2.565000000
H    -4.344000000    -5.051000000    -2.204000000
C    -2.209000000    -5.000000000    -2.450000000
O    -2.068000000    -6.325000000    -1.989000000
C    -0.803000000    -6.789000000    -1.662000000
C    -0.043000000    -7.560000000    -2.496000000
H    -0.441000000    -7.709000000    -3.497000000
C     1.145000000    -8.119000000    -2.024000000
H     1.533000000    -8.875000000    -2.701000000
C     1.538000000    -7.921000000    -0.704000000
H     2.372000000    -8.517000000    -0.343000000
C     0.825000000    -7.036000000     0.111000000
C    -0.369000000    -6.500000000    -0.359000000
H    -0.933000000    -5.806000000     0.259000000
C    -0.979000000    -2.971000000     1.602000000
H    -0.687000000    -3.645000000     2.403000000
C    -0.118000000    -1.939000000     1.231000000
H     0.847000000    -1.674000000     1.655000000
C    -0.547000000    -1.056000000     0.309000000
H     0.118000000    -0.202000000     0.060000000
C    -1.731000000    -1.205000000    -0.322000000
H    -1.822000000    -0.604000000    -1.223000000
C    -2.593000000    -2.291000000     0.024000000
H    -3.520000000    -2.509000000    -0.501000000
C    -2.222000000    -3.104000000     1.034000000
C    -3.089000000    -4.247000000     1.535000000
O    -4.141000000    -4.563000000     1.025000000
O    -2.707000000    -4.859000000     2.544000000
O    -6.484000000    -5.840000000     0.391000000
H    -5.609000000    -5.463000000     0.484000000
H    -6.948000000    -5.228000000    -0.182000000
O    -5.210000000    -4.179000000     5.823000000
H    -4.261000000    -4.099000000     5.730000000
H    -5.550000000    -3.327000000     5.551000000
O    -1.275000000    -3.493000000     7.359000000
H    -1.175000000    -4.417000000     7.586000000
H    -1.472000000    -3.496000000     6.422000000
O    -2.716000000    -3.645000000     4.948000000
H    -2.699000000    -4.127000000     4.121000000
H    -2.617000000    -2.728000000     4.692000000
O    -7.608000000    -4.040000000    -1.510000000
H    -8.164000000    -3.317000000    -1.800000000
H    -7.889000000    -4.785000000    -2.041000000
O    -2.764000000    -9.288000000     1.766000000
H    -3.234000000    -8.697000000     1.177000000
H    -2.213000000    -8.712000000     2.295000000
O    -3.919000000    -7.344000000     6.594000000
H    -4.410000000    -6.993000000     5.851000000
H    -4.589000000    -7.569000000     7.239000000
O    -4.668000000    -6.588000000     3.305000000
H    -3.907000000    -6.009000000     3.275000000
H    -5.419000000    -6.003000000     3.209000000
O    -3.507000000    -0.092000000     1.915000000
H    -3.069000000    -0.698000000     1.317000000
H    -4.340000000     0.107000000     1.487000000
O    -2.714000000    -0.794000000     4.485000000
H    -2.791000000    -0.633000000     3.545000000
H    -3.452000000    -0.322000000     4.871000000
O    -0.485000000    -8.140000000     5.249000000
H    -0.803000000    -8.065000000     4.349000000
H    -1.086000000    -7.598000000     5.761000000
O    -5.235000000    -2.319000000     3.268000000
H    -5.210000000    -2.614000000     2.358000000
H    -4.797000000    -1.468000000     3.256000000
O    -7.466000000    -7.673000000     1.959000000
H    -6.897000000    -8.397000000     2.220000000
H    -6.893000000    -7.084000000     1.466000000
O    -6.137000000    -0.117000000     0.975000000
H    -6.915000000     0.293000000     1.354000000
H    -6.397000000    -1.024000000     0.815000000
O    -7.929000000    -2.749000000     4.214000000
H    -7.964000000    -2.835000000     3.262000000
H    -7.067000000    -2.371000000     4.390000000
O    -5.177000000    -9.144000000     3.473000000
H    -5.140000000    -8.189000000     3.518000000
H    -4.453000000    -9.385000000     2.895000000
O    -6.167000000    -2.827000000     0.474000000
H    -6.843000000    -3.066000000    -0.159000000
H    -5.543000000    -3.552000000     0.444000000
O    -1.560000000    -7.118000000     2.903000000
H    -2.014000000    -6.276000000     2.894000000
H    -0.701000000    -6.931000000     2.525000000
O    -3.723000000    -7.020000000    -0.064000000
H    -3.886000000    -6.176000000     0.357000000
H    -3.525000000    -6.800000000    -0.974000000
