215
-1422.99950
C    -1.727000000     2.915000000     3.732000000
H    -1.942000000     3.751000000     3.071000000
C    -0.418000000     2.503000000     3.844000000
C    -0.135000000     1.492000000     4.803000000
H     0.907000000     1.185000000     4.822000000
C     0.683000000     2.975000000     2.899000000
O     0.455000000     4.306000000     2.396000000
H     0.680000000     2.288000000     2.040000000
O     2.053000000     2.951000000     3.435000000
C     2.929000000     2.473000000     2.486000000
C     3.322000000     1.207000000     2.722000000
H     3.006000000     0.630000000     3.588000000
C     4.038000000     0.536000000     1.802000000
O     4.316000000    -0.798000000     2.005000000
C     4.659000000     1.259000000     0.742000000
C     5.457000000     0.612000000    -0.291000000
H     6.255000000     1.261000000    -0.656000000
C     4.628000000    -0.171000000    -1.357000000
C     4.329000000     0.487000000    -2.494000000
H     4.458000000     1.566000000    -2.495000000
H     6.172000000    -0.033000000     0.226000000
C     4.314000000     2.631000000     0.536000000
H     4.876000000     3.187000000    -0.211000000
C     3.387000000     3.279000000     1.392000000
C     2.978000000     4.746000000     1.232000000
H     3.765000000     5.299000000     0.715000000
H     2.921000000     5.215000000     2.216000000
C     1.728000000     4.834000000     0.377000000
C     1.776000000     4.854000000    -1.009000000
H     2.742000000     4.892000000    -1.505000000
C     0.565000000     4.548000000     1.031000000
C    -0.648000000     4.505000000     0.389000000
H    -1.587000000     4.238000000     0.869000000
C    -0.622000000     4.650000000    -0.994000000
O    -1.830000000     4.414000000    -1.643000000
C    -2.115000000     3.072000000    -2.123000000
C    -3.546000000     2.627000000    -1.775000000
C    -4.033000000     1.350000000    -1.987000000
H    -3.370000000     0.752000000    -2.606000000
C    -4.385000000     3.479000000    -0.968000000
H    -4.067000000     4.517000000    -0.909000000
O    -1.823000000     2.909000000    -3.532000000
H    -1.433000000     2.366000000    -1.626000000
C     0.554000000     4.729000000    -1.692000000
C     0.604000000     4.617000000    -3.199000000
H     1.480000000     5.163000000    -3.553000000
H    -0.272000000     5.154000000    -3.569000000
C     0.637000000     3.182000000    -3.666000000
C     1.871000000     2.588000000    -3.954000000
H     2.822000000     3.111000000    -3.890000000
C    -0.522000000     2.473000000    -3.818000000
C    -0.539000000     1.146000000    -4.285000000
H    -1.467000000     0.631000000    -4.521000000
C     0.653000000     0.546000000    -4.536000000
O     0.521000000    -0.785000000    -4.877000000
C     0.914000000    -1.769000000    -3.869000000
C     0.010000000    -3.010000000    -3.903000000
C    -1.372000000    -2.880000000    -3.985000000
H    -1.815000000    -1.888000000    -4.034000000
C     0.547000000    -4.241000000    -3.535000000
H     1.634000000    -4.267000000    -3.518000000
O     2.320000000    -2.091000000    -4.074000000
H     0.776000000    -1.256000000    -2.905000000
C     1.861000000     1.225000000    -4.427000000
C     3.169000000     0.431000000    -4.746000000
H     3.905000000     1.112000000    -5.178000000
H     2.897000000    -0.227000000    -5.575000000
C     3.657000000    -0.277000000    -3.482000000
C     3.259000000    -1.563000000    -3.221000000
C     3.618000000    -2.218000000    -2.100000000
H     3.334000000    -3.267000000    -2.068000000
C     4.299000000    -1.528000000    -1.106000000
O     4.390000000    -2.152000000     0.078000000
C     3.548000000    -1.713000000     1.149000000
H     2.680000000    -1.227000000     0.681000000
C     3.034000000    -2.945000000     1.895000000
C     2.784000000    -2.887000000     3.253000000
H     3.058000000    -1.983000000     3.791000000
C     2.808000000    -4.127000000     1.202000000
H     3.047000000    -4.294000000     0.155000000
C     2.131000000    -5.117000000     1.828000000
O     1.800000000    -6.364000000     1.290000000
C     1.743000000    -4.981000000     3.094000000
H     1.166000000    -5.809000000     3.498000000
C     2.084000000    -3.923000000     3.868000000
O     1.552000000    -3.779000000     5.125000000
C     1.533000000    -2.618000000     5.875000000
C     0.449000000    -1.767000000     5.811000000
H    -0.215000000    -1.894000000     4.959000000
C     2.462000000    -2.498000000     6.889000000
H     3.084000000    -3.371000000     7.074000000
C     2.434000000    -1.332000000     7.710000000
H     3.091000000    -1.332000000     8.575000000
C     1.376000000    -0.410000000     7.578000000
H     1.308000000     0.333000000     8.368000000
C     0.364000000    -0.666000000     6.636000000
O    -0.748000000     0.097000000     6.665000000
C    -1.094000000     1.047000000     5.688000000
C    -2.411000000     1.418000000     5.475000000
H    -3.129000000     1.032000000     6.194000000
C    -2.721000000     2.432000000     4.603000000
O    -3.990000000     2.862000000     4.633000000
C    -4.541000000     3.780000000     3.781000000
C    -5.030000000     3.340000000     2.601000000
H    -4.874000000     2.309000000     2.293000000
C    -4.950000000     5.012000000     4.205000000
H    -4.660000000     5.414000000     5.172000000
C    -5.573000000     5.938000000     3.418000000
H    -5.774000000     6.947000000     3.767000000
C    -5.973000000     5.541000000     2.148000000
H    -6.522000000     6.181000000     1.461000000
C    -5.782000000     4.202000000     1.749000000
O    -6.274000000     3.761000000     0.480000000
C    -5.501000000     3.032000000    -0.375000000
C    -5.970000000     1.715000000    -0.599000000
H    -6.912000000     1.404000000    -0.154000000
C    -5.176000000     0.878000000    -1.492000000
O    -5.520000000    -0.436000000    -1.656000000
C    -5.447000000    -1.157000000    -2.847000000
C    -4.523000000    -2.205000000    -2.915000000
H    -3.805000000    -2.442000000    -2.134000000
C    -6.362000000    -0.879000000    -3.848000000
H    -6.979000000     0.016000000    -3.838000000
C    -6.234000000    -1.541000000    -5.093000000
H    -6.959000000    -1.312000000    -5.870000000
C    -5.420000000    -2.703000000    -5.157000000
H    -5.387000000    -3.370000000    -6.015000000
C    -4.506000000    -2.915000000    -4.068000000
O    -3.616000000    -3.999000000    -4.153000000
C    -2.270000000    -3.974000000    -3.916000000
C    -1.615000000    -5.243000000    -3.761000000
H    -2.158000000    -6.176000000    -3.633000000
C    -0.307000000    -5.295000000    -3.415000000
O     0.207000000    -6.552000000    -3.238000000
C     1.196000000    -6.810000000    -2.331000000
C     2.340000000    -7.478000000    -2.688000000
H     2.437000000    -7.689000000    -3.750000000
C     3.396000000    -7.656000000    -1.793000000
H     4.329000000    -8.079000000    -2.158000000
C     3.168000000    -7.330000000    -0.412000000
H     3.841000000    -7.651000000     0.379000000
C     1.989000000    -6.735000000    -0.022000000
C     0.987000000    -6.439000000    -0.975000000
H     0.014000000    -6.017000000    -0.734000000
C    -1.148000000    -2.234000000     0.458000000
H    -1.099000000    -3.318000000     0.387000000
C    -0.142000000    -1.448000000    -0.153000000
H     0.709000000    -1.944000000    -0.610000000
C    -0.201000000    -0.055000000    -0.040000000
H     0.561000000     0.663000000    -0.411000000
C    -1.288000000     0.476000000     0.641000000
H    -1.408000000     1.556000000     0.664000000
C    -2.206000000    -0.320000000     1.299000000
H    -3.084000000     0.179000000     1.701000000
C    -2.136000000    -1.678000000     1.296000000
C    -3.130000000    -2.480000000     2.120000000
O    -3.819000000    -1.921000000     2.969000000
O    -3.197000000    -3.663000000     1.999000000
O    -5.499000000    -7.651000000     0.783000000
H    -4.677000000    -7.957000000     0.401000000
H    -5.823000000    -6.997000000     0.163000000
O    -8.628000000    -3.607000000     4.614000000
H    -8.541000000    -3.612000000     3.660000000
H    -8.358000000    -4.484000000     4.884000000
O    -2.537000000    -6.287000000     1.462000000
H    -3.018000000    -6.472000000     2.269000000
H    -2.582000000    -5.335000000     1.370000000
O    -6.424000000    -1.395000000     2.974000000
H    -5.481000000    -1.558000000     2.998000000
H    -6.694000000    -1.675000000     2.100000000
O    -4.331000000    -2.552000000     8.652000000
H    -4.784000000    -2.307000000     7.845000000
H    -3.497000000    -2.917000000     8.357000000
O    -5.289000000    -4.785000000     0.304000000
H    -5.922000000    -4.102000000     0.528000000
H    -4.530000000    -4.598000000     0.855000000
O    -5.500000000    -5.082000000     6.419000000
H    -4.589000000    -5.339000000     6.560000000
H    -5.554000000    -4.898000000     5.481000000
O    -0.256000000    -7.779000000     2.517000000
H    -0.441000000    -7.101000000     1.868000000
H    -1.069000000    -8.282000000     2.576000000
O    -5.269000000    -4.310000000     3.597000000
H    -4.583000000    -3.700000000     3.326000000
H    -6.087000000    -3.859000000     3.386000000
O    -6.637000000    -6.220000000    -1.473000000
H    -6.985000000    -5.713000000    -2.206000000
H    -6.411000000    -5.563000000    -0.814000000
O    -2.922000000    -8.976000000     2.817000000
H    -2.727000000    -9.632000000     3.487000000
H    -3.377000000    -8.279000000     3.289000000
O    -8.077000000    -4.125000000     2.202000000
H    -7.979000000    -3.385000000     1.601000000
H    -8.696000000    -4.708000000     1.764000000
O    -8.130000000     1.495000000     3.934000000
H    -7.393000000     0.902000000     4.080000000
H    -8.608000000     1.107000000     3.201000000
O    -2.052000000    -3.344000000     6.868000000
H    -1.372000000    -3.355000000     6.194000000
H    -2.260000000    -4.267000000     7.013000000
O    -2.750000000    -5.985000000     7.071000000
H    -2.330000000    -6.774000000     6.726000000
H    -2.793000000    -6.130000000     8.016000000
O    -4.018000000    -1.626000000     5.845000000
H    -4.197000000    -1.668000000     4.906000000
H    -3.079000000    -1.794000000     5.918000000
O    -7.071000000    -2.268000000     0.375000000
H    -7.818000000    -2.287000000    -0.222000000
H    -6.530000000    -1.544000000     0.060000000
O    -5.245000000    -6.946000000     3.461000000
H    -5.323000000    -7.054000000     2.513000000
H    -5.170000000    -6.000000000     3.589000000
O    -6.457000000    -0.421000000     5.406000000
H    -5.556000000    -0.708000000     5.553000000
H    -6.700000000    -0.813000000     4.567000000
