215
-1479.52952
C    -1.812000000     2.628000000     4.025000000
H    -2.298000000     3.192000000     3.233000000
C    -0.389000000     2.488000000     4.069000000
C     0.151000000     1.669000000     5.102000000
H     1.214000000     1.574000000     5.310000000
C     0.444000000     3.132000000     2.961000000
O    -0.108000000     4.426000000     2.601000000
H     0.429000000     2.481000000     2.075000000
O     1.899000000     3.254000000     3.368000000
C     2.833000000     2.816000000     2.437000000
C     3.353000000     1.550000000     2.616000000
H     3.113000000     1.051000000     3.551000000
C     4.206000000     1.022000000     1.688000000
O     4.519000000    -0.314000000     1.786000000
C     4.514000000     1.765000000     0.498000000
C     5.389000000     1.178000000    -0.654000000
H     5.757000000     2.028000000    -1.233000000
C     4.651000000     0.329000000    -1.652000000
C     4.111000000     0.975000000    -2.837000000
H     4.363000000     1.981000000    -3.162000000
H     6.278000000     0.616000000    -0.360000000
C     3.953000000     3.009000000     0.341000000
H     4.144000000     3.516000000    -0.601000000
C     3.115000000     3.565000000     1.304000000
C     2.452000000     4.946000000     1.208000000
H     3.166000000     5.478000000     0.577000000
H     2.430000000     5.438000000     2.183000000
C     1.057000000     4.800000000     0.540000000
C     1.066000000     4.898000000    -0.827000000
H     2.020000000     4.967000000    -1.343000000
C    -0.135000000     4.681000000     1.243000000
C    -1.361000000     4.527000000     0.554000000
H    -2.266000000     4.545000000     1.155000000
C    -1.302000000     4.428000000    -0.803000000
O    -2.456000000     4.197000000    -1.459000000
C    -2.659000000     2.806000000    -1.793000000
C    -3.994000000     2.186000000    -1.397000000
C    -4.330000000     0.895000000    -1.872000000
H    -3.730000000     0.425000000    -2.646000000
C    -4.752000000     2.853000000    -0.450000000
H    -4.574000000     3.862000000    -0.087000000
O    -2.517000000     2.746000000    -3.198000000
H    -1.876000000     2.155000000    -1.378000000
C    -0.129000000     4.652000000    -1.510000000
C    -0.154000000     4.618000000    -3.032000000
H     0.732000000     5.178000000    -3.337000000
H    -0.992000000     5.248000000    -3.339000000
C    -0.170000000     3.202000000    -3.657000000
C     1.064000000     2.664000000    -4.072000000
H     1.963000000     3.245000000    -3.887000000
C    -1.338000000     2.369000000    -3.744000000
C    -1.181000000     1.066000000    -4.193000000
H    -2.114000000     0.514000000    -4.274000000
C     0.082000000     0.559000000    -4.525000000
O     0.175000000    -0.822000000    -4.906000000
C     0.816000000    -1.673000000    -3.924000000
C     0.028000000    -3.028000000    -3.872000000
C    -1.267000000    -3.084000000    -4.224000000
H    -1.772000000    -2.168000000    -4.520000000
C     0.753000000    -4.203000000    -3.443000000
H     1.821000000    -4.190000000    -3.244000000
O     2.230000000    -1.874000000    -4.284000000
H     0.658000000    -1.175000000    -2.956000000
C     1.215000000     1.353000000    -4.484000000
C     2.648000000     0.922000000    -4.863000000
H     3.293000000     1.772000000    -5.097000000
H     2.623000000     0.297000000    -5.758000000
C     3.306000000     0.162000000    -3.686000000
C     3.117000000    -1.163000000    -3.475000000
C     3.680000000    -1.774000000    -2.356000000
H     3.579000000    -2.833000000    -2.133000000
C     4.309000000    -0.992000000    -1.432000000
O     4.573000000    -1.679000000    -0.223000000
C     3.800000000    -1.253000000     0.885000000
H     2.973000000    -0.659000000     0.469000000
C     3.300000000    -2.484000000     1.590000000
C     2.887000000    -2.350000000     2.944000000
H     2.901000000    -1.352000000     3.373000000
C     3.234000000    -3.717000000     0.975000000
H     3.597000000    -3.808000000    -0.045000000
C     2.735000000    -4.922000000     1.725000000
O     2.839000000    -6.225000000     1.225000000
C     2.319000000    -4.718000000     2.993000000
H     1.908000000    -5.548000000     3.563000000
C     2.374000000    -3.448000000     3.607000000
O     1.768000000    -3.427000000     4.821000000
C     1.916000000    -2.488000000     5.756000000
C     0.761000000    -1.716000000     6.027000000
H    -0.168000000    -1.837000000     5.476000000
C     3.144000000    -2.197000000     6.307000000
H     4.066000000    -2.698000000     6.025000000
C     3.254000000    -1.157000000     7.217000000
H     4.269000000    -1.045000000     7.590000000
C     2.125000000    -0.418000000     7.545000000
H     2.153000000     0.401000000     8.260000000
C     0.896000000    -0.581000000     6.884000000
O    -0.088000000     0.369000000     7.134000000
C    -0.670000000     1.019000000     6.011000000
C    -2.084000000     1.184000000     5.966000000
H    -2.783000000     0.726000000     6.660000000
C    -2.639000000     2.047000000     5.045000000
O    -3.974000000     2.301000000     5.066000000
C    -4.596000000     3.086000000     4.110000000
C    -5.344000000     2.500000000     3.099000000
H    -5.392000000     1.420000000     2.981000000
C    -4.651000000     4.454000000     4.307000000
H    -4.087000000     4.929000000     5.105000000
C    -5.420000000     5.287000000     3.478000000
H    -5.372000000     6.340000000     3.743000000
C    -6.097000000     4.735000000     2.390000000
H    -6.664000000     5.352000000     1.699000000
C    -5.898000000     3.341000000     2.161000000
O    -6.585000000     2.723000000     1.077000000
C    -5.823000000     2.132000000     0.081000000
C    -6.128000000     0.806000000    -0.250000000
H    -6.921000000     0.211000000     0.197000000
C    -5.377000000     0.244000000    -1.305000000
O    -5.778000000    -1.023000000    -1.740000000
C    -5.439000000    -1.620000000    -2.964000000
C    -4.410000000    -2.551000000    -2.931000000
H    -3.837000000    -2.767000000    -2.034000000
C    -6.107000000    -1.280000000    -4.092000000
H    -6.817000000    -0.457000000    -4.124000000
C    -5.592000000    -1.758000000    -5.300000000
H    -6.061000000    -1.455000000    -6.232000000
C    -4.734000000    -2.835000000    -5.313000000
H    -4.391000000    -3.233000000    -6.265000000
C    -4.168000000    -3.230000000    -4.129000000
O    -3.366000000    -4.366000000    -4.186000000
C    -2.020000000    -4.318000000    -4.025000000
C    -1.372000000    -5.494000000    -3.637000000
H    -1.847000000    -6.432000000    -3.359000000
C     0.010000000    -5.423000000    -3.462000000
O     0.449000000    -6.670000000    -2.970000000
C     1.634000000    -6.657000000    -2.228000000
C     2.757000000    -7.370000000    -2.804000000
H     2.655000000    -7.802000000    -3.797000000
C     3.866000000    -7.607000000    -1.985000000
H     4.693000000    -8.236000000    -2.304000000
C     3.891000000    -7.132000000    -0.663000000
H     4.767000000    -7.312000000    -0.046000000
C     2.795000000    -6.480000000    -0.151000000
C     1.659000000    -6.249000000    -0.908000000
H     0.744000000    -5.757000000    -0.588000000
C    -0.688000000    -2.034000000     0.356000000
H    -0.457000000    -3.095000000     0.310000000
C     0.111000000    -1.201000000    -0.381000000
H     0.990000000    -1.542000000    -0.922000000
C     0.034000000     0.150000000    -0.232000000
H     0.829000000     0.747000000    -0.744000000
C    -0.882000000     0.726000000     0.570000000
H    -0.926000000     1.812000000     0.576000000
C    -1.853000000    -0.115000000     1.216000000
H    -2.622000000     0.348000000     1.830000000
C    -1.729000000    -1.529000000     1.192000000
C    -2.621000000    -2.458000000     1.909000000
O    -3.577000000    -2.050000000     2.514000000
O    -2.526000000    -3.665000000     1.631000000
O    -1.350000000    -6.931000000     0.152000000
H    -1.837000000    -7.259000000     0.908000000
H    -1.077000000    -7.719000000    -0.318000000
O    -1.123000000    -5.392000000     3.271000000
H    -0.398000000    -5.760000000     2.765000000
H    -1.551000000    -4.784000000     2.669000000
O    -7.170000000    -4.936000000     1.252000000
H    -6.768000000    -5.550000000     0.636000000
H    -6.656000000    -4.134000000     1.159000000
O     0.927000000    -8.023000000     1.929000000
H     1.601000000    -7.383000000     1.702000000
H     0.260000000    -7.920000000     1.250000000
O    -9.597000000    -1.514000000     1.711000000
H    -8.764000000    -1.211000000     2.070000000
H    -9.474000000    -1.486000000     0.762000000
O    -5.112000000    -3.176000000     6.287000000
H    -4.781000000    -3.699000000     5.556000000
H    -5.587000000    -2.457000000     5.871000000
O    -3.423000000    -5.193000000    -0.324000000
H    -2.770000000    -5.892000000    -0.346000000
H    -3.135000000    -4.618000000     0.385000000
O    -2.849000000    -5.758000000     5.454000000
H    -2.461000000    -6.122000000     6.250000000
H    -2.127000000    -5.728000000     4.827000000
O    -5.883000000    -6.162000000     5.293000000
H    -5.418000000    -5.452000000     4.851000000
H    -5.197000000    -6.787000000     5.528000000
O    -7.193000000    -0.736000000     2.747000000
H    -6.546000000    -0.762000000     3.452000000
H    -6.920000000    -1.429000000     2.145000000
O    -4.470000000    -4.243000000     3.934000000
H    -3.655000000    -4.539000000     4.339000000
H    -4.189000000    -3.668000000     3.222000000
O    -5.831000000    -6.441000000    -1.653000000
H    -5.850000000    -5.785000000    -2.350000000
H    -5.023000000    -6.259000000    -1.174000000
O    -5.015000000     0.188000000     7.708000000
H    -4.433000000    -0.570000000     7.656000000
H    -5.862000000    -0.140000000     7.403000000
O    -2.850000000    -7.710000000     2.227000000
H    -3.772000000    -7.571000000     2.445000000
H    -2.390000000    -7.619000000     3.061000000
O    -2.959000000    -1.716000000     7.572000000
H    -3.376000000    -2.361000000     7.001000000
H    -2.244000000    -2.195000000     7.991000000
O    -0.066000000    -5.440000000     6.348000000
H     0.856000000    -5.684000000     6.432000000
H    -0.186000000    -5.274000000     5.413000000
O    -5.890000000    -2.568000000     0.942000000
H    -5.019000000    -2.517000000     1.336000000
H    -5.856000000    -1.958000000     0.205000000
O    -5.208000000    -1.129000000     4.401000000
H    -4.677000000    -1.514000000     3.704000000
H    -4.613000000    -0.532000000     4.854000000
O    -8.242000000    -5.090000000     3.878000000
H    -7.714000000    -5.499000000     4.563000000
H    -7.698000000    -5.144000000     3.092000000
