215
-1447.54433
C    -3.622000000    -3.844000000    -0.360000000
H    -4.117000000    -3.792000000    -1.326000000
C    -3.630000000    -2.648000000     0.412000000
C    -2.912000000    -2.646000000     1.614000000
H    -2.839000000    -1.677000000     2.102000000
C    -4.071000000    -1.273000000    -0.130000000
O    -4.689000000    -1.350000000    -1.372000000
H    -3.096000000    -0.769000000    -0.203000000
O    -4.790000000    -0.486000000     0.848000000
C    -4.461000000     0.855000000     0.933000000
C    -3.909000000     1.291000000     2.134000000
H    -3.909000000     0.597000000     2.970000000
C    -3.310000000     2.534000000     2.273000000
O    -2.543000000     2.749000000     3.417000000
C    -3.370000000     3.442000000     1.185000000
C    -2.782000000     4.802000000     1.247000000
H    -3.316000000     5.505000000     0.606000000
C    -1.336000000     4.647000000     0.820000000
C    -0.972000000     4.880000000    -0.520000000
H    -1.707000000     5.066000000    -1.299000000
H    -2.822000000     5.168000000     2.276000000
C    -4.177000000     3.090000000     0.119000000
H    -4.109000000     3.738000000    -0.751000000
C    -4.598000000     1.776000000    -0.102000000
C    -5.224000000     1.461000000    -1.454000000
H    -5.667000000     2.381000000    -1.841000000
H    -5.931000000     0.656000000    -1.242000000
C    -4.297000000     0.783000000    -2.432000000
C    -3.597000000     1.534000000    -3.369000000
H    -3.667000000     2.612000000    -3.489000000
C    -4.139000000    -0.620000000    -2.412000000
C    -3.311000000    -1.258000000    -3.301000000
H    -3.208000000    -2.340000000    -3.273000000
C    -2.560000000    -0.504000000    -4.106000000
O    -1.472000000    -1.116000000    -4.680000000
C    -0.108000000    -1.033000000    -4.173000000
C     0.583000000    -2.396000000    -4.169000000
C     1.975000000    -2.547000000    -3.937000000
H     2.484000000    -1.682000000    -3.521000000
C    -0.161000000    -3.601000000    -4.386000000
H    -1.244000000    -3.601000000    -4.479000000
O     0.746000000    -0.189000000    -4.984000000
H    -0.193000000    -0.659000000    -3.142000000
C    -2.701000000     0.859000000    -4.234000000
C    -1.748000000     1.641000000    -5.234000000
H    -2.259000000     2.575000000    -5.477000000
H    -1.528000000     1.100000000    -6.156000000
C    -0.410000000     1.953000000    -4.464000000
C    -0.322000000     3.147000000    -3.773000000
H    -1.223000000     3.749000000    -3.687000000
C     0.752000000     1.096000000    -4.521000000
C     1.899000000     1.498000000    -3.852000000
H     2.821000000     0.923000000    -3.822000000
C     2.000000000     2.711000000    -3.264000000
O     3.095000000     2.923000000    -2.457000000
C     2.902000000     2.853000000    -0.961000000
C     3.987000000     2.002000000    -0.191000000
C     4.327000000     0.713000000    -0.557000000
H     3.893000000     0.151000000    -1.379000000
C     4.553000000     2.460000000     1.005000000
H     4.264000000     3.458000000     1.324000000
O     2.636000000     4.192000000    -0.429000000
H     1.966000000     2.294000000    -0.815000000
C     0.876000000     3.517000000    -3.135000000
C     0.805000000     4.870000000    -2.398000000
H     0.114000000     5.563000000    -2.881000000
H     1.775000000     5.372000000    -2.437000000
C     0.343000000     4.710000000    -0.936000000
C     1.309000000     4.331000000     0.029000000
C     1.008000000     4.321000000     1.391000000
H     1.825000000     4.158000000     2.090000000
C    -0.292000000     4.451000000     1.737000000
O    -0.618000000     4.020000000     3.040000000
C    -1.074000000     2.702000000     3.329000000
H    -0.848000000     2.042000000     2.478000000
C    -0.366000000     2.127000000     4.514000000
C    -0.946000000     1.065000000     5.197000000
H    -1.986000000     0.789000000     5.042000000
C     0.878000000     2.589000000     4.914000000
H     1.186000000     3.570000000     4.562000000
C     1.586000000     1.976000000     5.982000000
O     2.647000000     2.608000000     6.543000000
C     1.050000000     0.791000000     6.554000000
H     1.597000000     0.168000000     7.257000000
C    -0.224000000     0.379000000     6.211000000
O    -0.791000000    -0.713000000     6.825000000
C    -1.564000000    -1.647000000     6.231000000
C    -1.164000000    -2.175000000     4.982000000
H    -0.347000000    -1.697000000     4.448000000
C    -2.775000000    -2.023000000     6.785000000
H    -3.131000000    -1.520000000     7.681000000
C    -3.593000000    -2.933000000     6.171000000
H    -4.504000000    -3.318000000     6.623000000
C    -3.142000000    -3.531000000     5.016000000
H    -3.679000000    -4.335000000     4.520000000
C    -1.937000000    -3.136000000     4.426000000
O    -1.523000000    -3.655000000     3.284000000
C    -2.328000000    -3.785000000     2.162000000
C    -2.337000000    -4.956000000     1.373000000
H    -2.025000000    -5.843000000     1.918000000
C    -2.975000000    -5.009000000     0.138000000
O    -2.919000000    -6.239000000    -0.513000000
C    -2.835000000    -6.263000000    -1.906000000
C    -1.608000000    -6.083000000    -2.474000000
H    -0.732000000    -5.877000000    -1.863000000
C    -3.967000000    -6.561000000    -2.644000000
H    -4.909000000    -6.658000000    -2.109000000
C    -3.865000000    -6.710000000    -3.999000000
H    -4.682000000    -7.054000000    -4.629000000
C    -2.573000000    -6.442000000    -4.567000000
H    -2.408000000    -6.501000000    -5.640000000
C    -1.477000000    -6.099000000    -3.844000000
O    -0.225000000    -6.019000000    -4.455000000
C     0.458000000    -4.849000000    -4.355000000
C     1.844000000    -4.969000000    -4.182000000
H     2.333000000    -5.936000000    -4.269000000
C     2.624000000    -3.830000000    -4.044000000
O     3.927000000    -4.028000000    -3.817000000
C     4.784000000    -3.089000000    -3.324000000
C     4.920000000    -2.839000000    -1.962000000
H     4.366000000    -3.365000000    -1.189000000
C     5.512000000    -2.282000000    -4.211000000
H     5.445000000    -2.508000000    -5.272000000
C     6.306000000    -1.238000000    -3.731000000
H     6.779000000    -0.627000000    -4.496000000
C     6.350000000    -0.935000000    -2.387000000
H     6.838000000    -0.043000000    -2.003000000
C     5.608000000    -1.731000000    -1.505000000
O     5.614000000    -1.354000000    -0.181000000
C     5.185000000    -0.117000000     0.181000000
C     5.790000000     0.344000000     1.341000000
H     6.482000000    -0.291000000     1.889000000
C     5.354000000     1.585000000     1.808000000
O     5.871000000     2.080000000     2.973000000
C     5.336000000     2.897000000     3.911000000
C     5.793000000     4.204000000     4.208000000
H     6.583000000     4.566000000     3.556000000
C     5.208000000     4.889000000     5.286000000
H     5.574000000     5.894000000     5.484000000
C     4.186000000     4.410000000     6.072000000
H     3.665000000     4.970000000     6.845000000
C     3.666000000     3.121000000     5.720000000
C     4.234000000     2.459000000     4.619000000
H     3.912000000     1.429000000     4.487000000
C     1.671000000    -0.675000000     1.980000000
H     2.369000000    -0.337000000     2.742000000
C     1.032000000     0.266000000     1.211000000
H     1.171000000     1.328000000     1.399000000
C     0.161000000    -0.067000000     0.146000000
H    -0.308000000     0.734000000    -0.400000000
C    -0.022000000    -1.430000000    -0.186000000
H    -0.678000000    -1.632000000    -1.030000000
C     0.533000000    -2.399000000     0.622000000
H     0.298000000    -3.421000000     0.337000000
C     1.437000000    -2.039000000     1.645000000
C     2.244000000    -3.122000000     2.282000000
O     2.356000000    -4.269000000     1.867000000
O     2.863000000    -2.854000000     3.304000000
O     5.517000000    -7.712000000     5.314000000
H     4.908000000    -7.995000000     4.632000000
H     4.958000000    -7.329000000     5.990000000
O     4.025000000    -7.580000000     3.003000000
H     4.801000000    -7.148000000     2.646000000
H     3.777000000    -8.218000000     2.333000000
O     4.344000000    -5.276000000     0.688000000
H     3.579000000    -4.982000000     1.182000000
H     3.988000000    -5.571000000    -0.151000000
O     7.239000000    -0.069000000     4.795000000
H     7.505000000    -0.462000000     5.626000000
H     6.357000000    -0.408000000     4.641000000
O     4.173000000    -1.940000000     7.190000000
H     4.053000000    -2.878000000     7.342000000
H     4.395000000    -1.585000000     8.051000000
O     3.481000000    -5.753000000     6.298000000
H     2.736000000    -5.158000000     6.379000000
H     3.997000000    -5.392000000     5.577000000
O     1.909000000    -3.606000000     5.757000000
H     1.990000000    -3.178000000     4.905000000
H     1.859000000    -2.885000000     6.385000000
O    -0.900000000    -8.118000000     0.566000000
H    -1.197000000    -8.423000000    -0.291000000
H    -0.163000000    -7.539000000     0.372000000
O     0.860000000    -5.997000000     3.814000000
H     0.389000000    -5.184000000     3.996000000
H     1.641000000    -5.720000000     3.335000000
O     0.370000000    -8.416000000     3.026000000
H    -0.127000000    -8.340000000     2.212000000
H     0.631000000    -7.518000000     3.232000000
O     4.676000000    -4.683000000     4.080000000
H     3.845000000    -4.254000000     3.879000000
H     5.260000000    -4.419000000     3.369000000
O     7.390000000    -3.699000000     5.835000000
H     6.870000000    -3.869000000     5.049000000
H     7.310000000    -4.499000000     6.353000000
O     1.439000000    -6.781000000     0.361000000
H     2.140000000    -6.960000000    -0.266000000
H     1.752000000    -6.028000000     0.861000000
O     1.940000000    -7.852000000     5.950000000
H     1.621000000    -7.485000000     5.126000000
H     2.666000000    -7.280000000     6.202000000
O     6.957000000    -5.595000000    -0.278000000
H     7.601000000    -6.089000000     0.229000000
H     6.246000000    -5.424000000     0.340000000
O     0.422000000    -5.504000000     7.145000000
H     0.699000000    -4.768000000     6.599000000
H     0.090000000    -6.151000000     6.523000000
O     3.104000000    -7.455000000    -1.431000000
H     4.033000000    -7.686000000    -1.428000000
H     2.869000000    -7.421000000    -2.358000000
O     4.482000000    -1.419000000     4.580000000
H     4.307000000    -1.682000000     5.484000000
H     3.933000000    -1.998000000     4.052000000
O     5.767000000    -2.948000000     2.106000000
H     5.004000000    -3.109000000     1.551000000
H     5.464000000    -2.307000000     2.750000000
