215
-1453.54472
C    -1.150000000     2.598000000     4.473000000
H    -1.605000000     3.516000000     4.111000000
C     0.107000000     2.059000000     4.110000000
C     0.512000000     0.828000000     4.629000000
H     1.405000000     0.304000000     4.297000000
C     0.935000000     2.730000000     2.990000000
O     0.749000000     4.149000000     2.785000000
H     0.578000000     2.263000000     2.060000000
O     2.370000000     2.643000000     3.274000000
C     3.158000000     2.171000000     2.305000000
C     3.514000000     0.841000000     2.314000000
H     3.296000000     0.269000000     3.212000000
C     4.366000000     0.283000000     1.344000000
O     4.726000000    -1.055000000     1.352000000
C     4.698000000     1.103000000     0.226000000
C     5.422000000     0.552000000    -0.989000000
H     5.903000000     1.381000000    -1.513000000
C     4.539000000    -0.145000000    -1.959000000
C     4.029000000     0.576000000    -3.046000000
H     4.381000000     1.592000000    -3.203000000
H     6.235000000    -0.074000000    -0.617000000
C     4.336000000     2.477000000     0.153000000
H     4.480000000     3.051000000    -0.759000000
C     3.573000000     3.005000000     1.254000000
C     3.226000000     4.492000000     1.232000000
H     3.808000000     5.070000000     0.512000000
H     3.369000000     4.910000000     2.231000000
C     1.817000000     4.572000000     0.584000000
C     1.638000000     4.636000000    -0.777000000
H     2.485000000     4.684000000    -1.457000000
C     0.682000000     4.462000000     1.456000000
C    -0.560000000     4.477000000     0.864000000
H    -1.432000000     4.370000000     1.504000000
C    -0.761000000     4.618000000    -0.509000000
O    -2.013000000     4.485000000    -1.054000000
C    -2.409000000     3.232000000    -1.523000000
C    -3.828000000     2.755000000    -1.085000000
C    -4.472000000     1.740000000    -1.748000000
H    -4.027000000     1.244000000    -2.606000000
C    -4.399000000     3.311000000     0.043000000
H    -3.912000000     4.075000000     0.645000000
O    -2.318000000     3.255000000    -2.982000000
H    -1.634000000     2.566000000    -1.115000000
C     0.375000000     4.674000000    -1.322000000
C     0.194000000     4.737000000    -2.786000000
H     1.068000000     5.236000000    -3.211000000
H    -0.615000000     5.408000000    -3.084000000
C     0.035000000     3.335000000    -3.408000000
C     1.176000000     2.679000000    -3.892000000
H     2.128000000     3.116000000    -3.601000000
C    -1.177000000     2.733000000    -3.531000000
C    -1.320000000     1.477000000    -4.231000000
H    -2.280000000     0.968000000    -4.225000000
C    -0.152000000     0.820000000    -4.576000000
O    -0.238000000    -0.504000000    -4.943000000
C     0.242000000    -1.460000000    -3.958000000
C    -0.625000000    -2.742000000    -3.892000000
C    -2.050000000    -2.565000000    -3.930000000
H    -2.497000000    -1.583000000    -3.801000000
C    -0.132000000    -4.028000000    -3.937000000
H     0.948000000    -4.147000000    -3.960000000
O     1.558000000    -1.823000000    -4.316000000
H     0.172000000    -0.968000000    -2.976000000
C     1.151000000     1.453000000    -4.565000000
C     2.450000000     0.783000000    -4.991000000
H     3.152000000     1.578000000    -5.250000000
H     2.416000000     0.095000000    -5.839000000
C     3.078000000    -0.022000000    -3.816000000
C     2.669000000    -1.296000000    -3.621000000
C     3.151000000    -2.066000000    -2.582000000
H     2.896000000    -3.119000000    -2.666000000
C     4.085000000    -1.493000000    -1.666000000
O     4.449000000    -2.228000000    -0.620000000
C     3.836000000    -1.857000000     0.672000000
H     2.968000000    -1.222000000     0.441000000
C     3.310000000    -3.067000000     1.455000000
C     3.451000000    -3.164000000     2.859000000
H     3.953000000    -2.390000000     3.435000000
C     2.567000000    -4.076000000     0.785000000
H     2.465000000    -3.984000000    -0.293000000
C     1.912000000    -5.064000000     1.547000000
O     1.140000000    -5.936000000     0.857000000
C     2.078000000    -5.148000000     2.931000000
H     1.482000000    -5.809000000     3.555000000
C     2.921000000    -4.231000000     3.574000000
O     2.962000000    -4.388000000     4.961000000
C     2.778000000    -3.271000000     5.766000000
C     1.457000000    -2.745000000     5.842000000
H     0.708000000    -3.083000000     5.131000000
C     3.864000000    -2.610000000     6.363000000
H     4.812000000    -3.140000000     6.402000000
C     3.629000000    -1.447000000     7.119000000
H     4.431000000    -1.000000000     7.702000000
C     2.365000000    -0.854000000     7.131000000
H     2.157000000     0.117000000     7.573000000
C     1.327000000    -1.459000000     6.394000000
O     0.058000000    -0.900000000     6.258000000
C    -0.274000000     0.275000000     5.673000000
C    -1.532000000     0.806000000     5.992000000
H    -2.232000000     0.254000000     6.614000000
C    -1.955000000     1.969000000     5.372000000
O    -3.355000000     2.367000000     5.544000000
C    -4.048000000     3.228000000     4.638000000
C    -4.707000000     2.709000000     3.542000000
H    -4.883000000     1.646000000     3.393000000
C    -4.084000000     4.608000000     4.918000000
H    -3.570000000     4.947000000     5.815000000
C    -4.651000000     5.501000000     4.001000000
H    -4.681000000     6.579000000     4.133000000
C    -5.335000000     4.984000000     2.913000000
H    -6.032000000     5.631000000     2.387000000
C    -5.382000000     3.615000000     2.684000000
O    -6.206000000     3.207000000     1.675000000
C    -5.614000000     2.795000000     0.531000000
C    -6.198000000     1.730000000    -0.081000000
H    -6.974000000     1.236000000     0.499000000
C    -5.729000000     1.222000000    -1.280000000
O    -6.318000000     0.028000000    -1.652000000
C    -6.021000000    -0.545000000    -2.827000000
C    -5.299000000    -1.748000000    -2.789000000
H    -5.047000000    -2.162000000    -1.816000000
C    -6.187000000     0.145000000    -4.030000000
H    -6.815000000     1.031000000    -4.081000000
C    -5.675000000    -0.431000000    -5.176000000
H    -5.789000000     0.110000000    -6.112000000
C    -5.102000000    -1.710000000    -5.165000000
H    -4.899000000    -2.160000000    -6.133000000
C    -4.922000000    -2.399000000    -3.927000000
O    -4.250000000    -3.551000000    -3.845000000
C    -2.906000000    -3.696000000    -3.971000000
C    -2.330000000    -5.007000000    -3.843000000
H    -3.015000000    -5.848000000    -3.908000000
C    -0.989000000    -5.168000000    -3.862000000
O    -0.365000000    -6.412000000    -3.645000000
C     0.680000000    -6.509000000    -2.753000000
C     1.893000000    -7.069000000    -3.126000000
H     2.215000000    -7.347000000    -4.126000000
C     2.863000000    -7.277000000    -2.120000000
H     3.770000000    -7.726000000    -2.516000000
C     2.590000000    -6.948000000    -0.814000000
H     3.351000000    -7.096000000    -0.052000000
C     1.409000000    -6.281000000    -0.439000000
C     0.429000000    -6.169000000    -1.401000000
H    -0.533000000    -5.768000000    -1.094000000
C    -0.900000000    -2.543000000    -0.114000000
H    -0.593000000    -3.575000000    -0.265000000
C    -0.012000000    -1.564000000    -0.408000000
H     0.949000000    -1.864000000    -0.819000000
C    -0.252000000    -0.252000000    -0.128000000
H     0.552000000     0.566000000    -0.149000000
C    -1.440000000     0.111000000     0.505000000
H    -1.558000000     1.130000000     0.864000000
C    -2.450000000    -0.844000000     0.756000000
H    -3.415000000    -0.484000000     1.103000000
C    -2.187000000    -2.218000000     0.413000000
C    -3.236000000    -3.270000000     0.652000000
O    -4.330000000    -2.945000000     1.011000000
O    -2.953000000    -4.440000000     0.531000000
O    -1.571000000    -8.680000000     0.692000000
H    -2.272000000    -8.047000000     0.847000000
H    -1.555000000    -8.792000000    -0.259000000
O    -8.057000000    -6.846000000    -0.034000000
H    -7.867000000    -5.930000000     0.173000000
H    -8.596000000    -7.149000000     0.697000000
O    -0.990000000    -4.954000000     3.412000000
H    -0.876000000    -5.879000000     3.192000000
H    -1.055000000    -4.513000000     2.566000000
O    -7.939000000    -4.723000000     2.103000000
H    -7.118000000    -4.623000000     2.585000000
H    -8.554000000    -5.072000000     2.749000000
O    -0.856000000    -7.695000000     3.185000000
H    -0.060000000    -8.050000000     3.581000000
H    -0.825000000    -7.995000000     2.276000000
O    -5.307000000    -7.030000000     3.075000000
H    -6.092000000    -7.184000000     3.600000000
H    -4.702000000    -7.722000000     3.341000000
O    -6.700000000    -1.889000000     0.939000000
H    -7.248000000    -2.395000000     0.339000000
H    -5.826000000    -2.270000000     0.844000000
O    -5.171000000    -0.932000000     3.096000000
H    -4.383000000    -1.473000000     3.051000000
H    -5.566000000    -1.011000000     2.228000000
O    -3.539000000    -6.910000000     0.885000000
H    -4.346000000    -6.768000000     1.379000000
H    -3.192000000    -6.030000000     0.735000000
O    -3.257000000    -8.782000000     3.818000000
H    -2.707000000    -8.126000000     3.390000000
H    -2.890000000    -9.621000000     3.539000000
O    -6.257000000    -2.972000000     5.315000000
H    -5.818000000    -3.720000000     4.910000000
H    -5.920000000    -2.211000000     4.843000000
O    -9.252000000    -1.380000000     2.064000000
H    -8.577000000    -2.026000000     1.856000000
H    -9.860000000    -1.424000000     1.326000000
O    -8.000000000    -3.854000000    -2.118000000
H    -8.628000000    -4.180000000    -1.474000000
H    -7.161000000    -4.226000000    -1.844000000
O    -5.181000000    -4.347000000     3.293000000
H    -4.905000000    -4.147000000     2.399000000
H    -5.284000000    -5.298000000     3.306000000
O    -3.897000000    -7.297000000    -1.851000000
H    -3.876000000    -7.202000000    -0.899000000
H    -3.198000000    -7.923000000    -2.045000000
O    -6.732000000    -7.655000000    -2.157000000
H    -5.795000000    -7.534000000    -2.001000000
H    -7.144000000    -7.442000000    -1.320000000
O    -3.180000000    -3.599000000     4.872000000
H    -2.353000000    -3.944000000     4.538000000
H    -3.831000000    -3.865000000     4.222000000
O    -5.601000000    -4.659000000    -0.668000000
H    -5.053000000    -3.992000000    -0.253000000
H    -4.984000000    -5.334000000    -0.951000000
O    -7.722000000    -0.481000000     3.875000000
H    -6.850000000    -0.691000000     3.541000000
H    -8.307000000    -0.640000000     3.135000000
