215
-1465.73193
C    -1.794000000     2.959000000     3.943000000
H    -2.242000000     3.354000000     3.034000000
C    -0.423000000     2.668000000     4.078000000
C     0.037000000     1.999000000     5.196000000
H     1.068000000     1.654000000     5.212000000
C     0.509000000     3.138000000     3.004000000
O     0.180000000     4.424000000     2.408000000
H     0.581000000     2.352000000     2.237000000
O     1.885000000     3.136000000     3.518000000
C     2.816000000     2.551000000     2.761000000
C     3.087000000     1.178000000     2.927000000
H     2.600000000     0.603000000     3.710000000
C     3.949000000     0.493000000     2.089000000
O     4.029000000    -0.837000000     2.350000000
C     4.559000000     1.170000000     0.993000000
C     5.486000000     0.414000000     0.013000000
H     6.171000000     1.142000000    -0.428000000
C     4.687000000    -0.316000000    -1.052000000
C     4.548000000     0.247000000    -2.362000000
H     4.927000000     1.245000000    -2.565000000
H     6.142000000    -0.313000000     0.496000000
C     4.289000000     2.471000000     0.803000000
H     4.598000000     2.947000000    -0.124000000
C     3.342000000     3.189000000     1.594000000
C     2.826000000     4.642000000     1.252000000
H     3.666000000     5.105000000     0.730000000
H     2.590000000     5.159000000     2.184000000
C     1.555000000     4.621000000     0.407000000
C     1.689000000     4.565000000    -0.978000000
H     2.690000000     4.564000000    -1.402000000
C     0.324000000     4.570000000     1.048000000
C    -0.846000000     4.546000000     0.351000000
H    -1.814000000     4.433000000     0.832000000
C    -0.796000000     4.489000000    -1.021000000
O    -1.937000000     4.298000000    -1.796000000
C    -2.065000000     2.936000000    -2.184000000
C    -3.538000000     2.425000000    -1.984000000
C    -4.155000000     1.623000000    -2.891000000
H    -3.715000000     1.366000000    -3.851000000
C    -4.271000000     2.741000000    -0.846000000
H    -3.773000000     3.345000000    -0.093000000
O    -1.742000000     2.939000000    -3.611000000
H    -1.381000000     2.268000000    -1.640000000
C     0.479000000     4.553000000    -1.691000000
C     0.654000000     4.536000000    -3.169000000
H     1.583000000     5.056000000    -3.413000000
H    -0.062000000     5.187000000    -3.675000000
C     0.670000000     3.086000000    -3.764000000
C     1.909000000     2.481000000    -3.948000000
H     2.805000000     3.090000000    -3.865000000
C    -0.540000000     2.455000000    -3.967000000
C    -0.519000000     1.104000000    -4.172000000
H    -1.463000000     0.575000000    -4.269000000
C     0.722000000     0.434000000    -4.375000000
O     0.626000000    -0.864000000    -4.719000000
C     1.011000000    -1.867000000    -3.730000000
C     0.020000000    -3.045000000    -3.777000000
C    -1.353000000    -2.912000000    -4.107000000
H    -1.659000000    -1.917000000    -4.421000000
C     0.455000000    -4.289000000    -3.433000000
H     1.504000000    -4.383000000    -3.163000000
O     2.428000000    -2.186000000    -3.953000000
H     0.818000000    -1.391000000    -2.757000000
C     1.956000000     1.104000000    -4.284000000
C     3.272000000     0.413000000    -4.601000000
H     4.093000000     1.051000000    -4.933000000
H     3.048000000    -0.298000000    -5.399000000
C     3.762000000    -0.363000000    -3.329000000
C     3.278000000    -1.672000000    -3.047000000
C     3.581000000    -2.286000000    -1.869000000
H     3.149000000    -3.227000000    -1.540000000
C     4.257000000    -1.619000000    -0.865000000
O     4.281000000    -2.242000000     0.353000000
C     3.378000000    -1.661000000     1.362000000
H     2.557000000    -1.078000000     0.919000000
C     2.600000000    -2.813000000     2.116000000
C     2.160000000    -2.531000000     3.415000000
H     2.355000000    -1.516000000     3.751000000
C     2.455000000    -4.067000000     1.530000000
H     2.853000000    -4.103000000     0.519000000
C     1.832000000    -5.083000000     2.232000000
O     1.546000000    -6.299000000     1.665000000
C     1.368000000    -4.856000000     3.482000000
H     0.856000000    -5.688000000     3.960000000
C     1.477000000    -3.583000000     4.106000000
O     1.016000000    -3.436000000     5.321000000
C     1.211000000    -2.293000000     6.220000000
C     0.330000000    -1.253000000     6.253000000
H    -0.553000000    -1.220000000     5.619000000
C     2.181000000    -2.384000000     7.243000000
H     2.856000000    -3.232000000     7.332000000
C     2.227000000    -1.416000000     8.246000000
H     3.051000000    -1.542000000     8.943000000
C     1.357000000    -0.302000000     8.193000000
H     1.480000000     0.508000000     8.906000000
C     0.469000000    -0.218000000     7.160000000
O    -0.442000000     0.791000000     7.186000000
C    -0.819000000     1.514000000     6.141000000
C    -2.189000000     1.792000000     6.020000000
H    -2.921000000     1.393000000     6.718000000
C    -2.695000000     2.466000000     4.864000000
O    -4.052000000     2.641000000     4.776000000
C    -4.605000000     3.281000000     3.697000000
C    -5.235000000     2.523000000     2.740000000
H    -5.327000000     1.440000000     2.702000000
C    -4.643000000     4.693000000     3.641000000
H    -4.181000000     5.275000000     4.434000000
C    -5.215000000     5.349000000     2.546000000
H    -5.220000000     6.434000000     2.481000000
C    -5.853000000     4.577000000     1.570000000
H    -6.228000000     5.026000000     0.653000000
C    -5.782000000     3.189000000     1.649000000
O    -6.343000000     2.477000000     0.598000000
C    -5.600000000     2.254000000    -0.559000000
C    -6.149000000     1.354000000    -1.486000000
H    -7.142000000     0.917000000    -1.413000000
C    -5.417000000     1.074000000    -2.623000000
O    -6.095000000     0.161000000    -3.511000000
C    -5.264000000    -0.542000000    -4.328000000
C    -4.652000000    -1.729000000    -3.806000000
H    -4.623000000    -1.887000000    -2.731000000
C    -5.103000000    -0.224000000    -5.627000000
H    -5.554000000     0.695000000    -5.992000000
C    -4.455000000    -1.030000000    -6.528000000
H    -4.481000000    -0.795000000    -7.589000000
C    -3.905000000    -2.212000000    -6.083000000
H    -3.589000000    -2.960000000    -6.806000000
C    -4.031000000    -2.548000000    -4.736000000
O    -3.578000000    -3.747000000    -4.234000000
C    -2.255000000    -3.986000000    -3.985000000
C    -1.823000000    -5.169000000    -3.406000000
H    -2.487000000    -6.012000000    -3.234000000
C    -0.466000000    -5.327000000    -3.276000000
O    -0.006000000    -6.559000000    -2.855000000
C     1.031000000    -6.610000000    -1.953000000
C     2.310000000    -7.107000000    -2.344000000
H     2.486000000    -7.276000000    -3.403000000
C     3.312000000    -7.312000000    -1.355000000
H     4.214000000    -7.861000000    -1.613000000
C     3.000000000    -7.057000000    -0.031000000
H     3.700000000    -7.162000000     0.794000000
C     1.730000000    -6.610000000     0.345000000
C     0.765000000    -6.421000000    -0.617000000
H    -0.281000000    -6.200000000    -0.421000000
C    -1.097000000    -2.875000000    -0.310000000
H    -0.777000000    -3.904000000    -0.456000000
C    -0.081000000    -1.970000000    -0.437000000
H     0.891000000    -2.380000000    -0.699000000
C    -0.318000000    -0.590000000    -0.525000000
H     0.445000000     0.192000000    -0.679000000
C    -1.591000000    -0.171000000    -0.219000000
H    -1.800000000     0.895000000    -0.185000000
C    -2.705000000    -1.096000000    -0.093000000
H    -3.658000000    -0.627000000     0.140000000
C    -2.399000000    -2.446000000    -0.161000000
C    -3.516000000    -3.401000000     0.057000000
O    -4.694000000    -3.067000000     0.109000000
O    -3.251000000    -4.578000000     0.325000000
O    -2.030000000    -5.728000000     2.399000000
H    -2.502000000    -5.202000000     1.754000000
H    -2.334000000    -5.400000000     3.245000000
O    -2.173000000    -4.049000000     4.915000000
H    -1.238000000    -4.135000000     5.101000000
H    -2.228000000    -3.327000000     4.289000000
O    -3.786000000    -6.251000000    -6.088000000
H    -4.729000000    -6.390000000    -6.176000000
H    -3.709000000    -5.472000000    -5.536000000
O    -4.393000000    -8.821000000     1.695000000
H    -4.507000000    -9.769000000     1.621000000
H    -4.607000000    -8.486000000     0.825000000
O    -6.888000000    -4.296000000    -0.545000000
H    -6.107000000    -3.845000000    -0.225000000
H    -7.092000000    -3.862000000    -1.374000000
O    -6.119000000    -0.827000000     0.899000000
H    -6.021000000    -0.159000000     0.221000000
H    -5.649000000    -1.587000000     0.557000000
O    -9.523000000    -2.063000000     3.711000000
H    -9.445000000    -2.606000000     4.496000000
H    -8.627000000    -1.983000000     3.385000000
O    -4.105000000    -4.994000000     6.356000000
H    -3.453000000    -4.697000000     5.721000000
H    -3.685000000    -4.869000000     7.207000000
O    -1.566000000    -8.543000000     2.296000000
H    -1.448000000    -7.614000000     2.101000000
H    -2.492000000    -8.625000000     2.524000000
O    -5.100000000    -6.544000000    -0.486000000
H    -4.437000000    -5.874000000    -0.321000000
H    -5.899000000    -6.050000000    -0.671000000
O    -6.766000000    -9.008000000    -1.031000000
H    -6.099000000    -8.371000000    -0.775000000
H    -6.272000000    -9.726000000    -1.427000000
O    -3.752000000    -1.257000000     5.753000000
H    -4.583000000    -0.792000000     5.658000000
H    -3.520000000    -1.519000000     4.862000000
O    -3.073000000    -1.960000000     3.132000000
H    -3.788000000    -2.552000000     2.897000000
H    -3.158000000    -1.227000000     2.523000000
O    -6.692000000    -2.196000000     3.228000000
H    -6.544000000    -1.790000000     2.374000000
H    -6.465000000    -3.117000000     3.099000000
O    -5.929000000    -0.040000000     5.006000000
H    -6.066000000    -0.681000000     4.309000000
H    -6.756000000     0.439000000     5.057000000
O    -5.107000000    -4.611000000     2.315000000
H    -4.686000000    -4.139000000     1.596000000
H    -5.242000000    -5.495000000     1.975000000
O    -9.733000000    -3.776000000     0.024000000
H    -9.113000000    -4.443000000     0.319000000
H    -9.188000000    -3.109000000    -0.392000000
O    -7.882000000    -2.131000000    -1.796000000
H    -8.371000000    -1.505000000    -1.261000000
H    -7.933000000    -1.779000000    -2.684000000
O    -6.564000000    -5.132000000     4.450000000
H    -6.123000000    -4.869000000     3.643000000
H    -5.860000000    -5.208000000     5.094000000
