215
-1448.29984
C    -3.378000000    -3.813000000    -0.438000000
H    -3.883000000    -3.774000000    -1.400000000
C    -3.370000000    -2.605000000     0.310000000
C    -2.769000000    -2.577000000     1.560000000
H    -2.681000000    -1.642000000     2.108000000
C    -3.789000000    -1.245000000    -0.370000000
O    -4.394000000    -1.435000000    -1.616000000
H    -2.800000000    -0.765000000    -0.384000000
O    -4.564000000    -0.564000000     0.490000000
C    -4.277000000     0.770000000     0.703000000
C    -3.599000000     1.048000000     1.857000000
H    -3.466000000     0.295000000     2.629000000
C    -3.223000000     2.359000000     2.114000000
O    -2.604000000     2.640000000     3.315000000
C    -3.287000000     3.330000000     1.122000000
C    -2.855000000     4.774000000     1.342000000
H    -3.377000000     5.452000000     0.664000000
C    -1.368000000     4.895000000     1.017000000
C    -0.889000000     5.183000000    -0.228000000
H    -1.595000000     5.421000000    -1.020000000
H    -3.121000000     5.098000000     2.350000000
C    -3.899000000     2.968000000    -0.092000000
H    -3.945000000     3.669000000    -0.921000000
C    -4.436000000     1.723000000    -0.302000000
C    -5.071000000     1.397000000    -1.702000000
H    -5.440000000     2.258000000    -2.264000000
H    -5.870000000     0.664000000    -1.570000000
C    -4.143000000     0.741000000    -2.685000000
C    -3.429000000     1.587000000    -3.521000000
H    -3.546000000     2.667000000    -3.482000000
C    -3.916000000    -0.623000000    -2.620000000
C    -2.951000000    -1.112000000    -3.403000000
H    -2.826000000    -2.188000000    -3.311000000
C    -2.296000000    -0.416000000    -4.351000000
O    -1.315000000    -1.050000000    -5.073000000
C     0.016000000    -0.914000000    -4.440000000
C     0.816000000    -2.254000000    -4.393000000
C     2.207000000    -2.346000000    -4.472000000
H     2.781000000    -1.427000000    -4.388000000
C     0.106000000    -3.462000000    -4.345000000
H    -0.941000000    -3.453000000    -4.055000000
O     0.727000000     0.208000000    -4.987000000
H    -0.168000000    -0.597000000    -3.403000000
C    -2.471000000     0.966000000    -4.375000000
C    -1.581000000     1.819000000    -5.295000000
H    -2.156000000     2.601000000    -5.796000000
H    -1.258000000     1.166000000    -6.108000000
C    -0.349000000     2.308000000    -4.479000000
C    -0.376000000     3.465000000    -3.702000000
H    -1.155000000     4.218000000    -3.790000000
C     0.770000000     1.422000000    -4.376000000
C     1.880000000     1.706000000    -3.616000000
H     2.753000000     1.060000000    -3.560000000
C     1.844000000     2.888000000    -2.935000000
O     2.890000000     3.139000000    -2.066000000
C     2.726000000     3.039000000    -0.550000000
C     3.823000000     2.135000000     0.114000000
C     4.238000000     0.955000000    -0.559000000
H     4.012000000     0.761000000    -1.605000000
C     4.323000000     2.371000000     1.379000000
H     4.051000000     3.302000000     1.869000000
O     2.601000000     4.341000000     0.121000000
H     1.818000000     2.447000000    -0.364000000
C     0.693000000     3.738000000    -2.849000000
C     0.784000000     5.101000000    -2.055000000
H    -0.011000000     5.704000000    -2.498000000
H     1.681000000     5.688000000    -2.262000000
C     0.409000000     4.956000000    -0.591000000
C     1.338000000     4.618000000     0.417000000
C     0.924000000     4.473000000     1.703000000
H     1.628000000     4.052000000     2.417000000
C    -0.417000000     4.516000000     1.968000000
O    -0.725000000     3.983000000     3.183000000
C    -1.157000000     2.579000000     3.328000000
H    -0.807000000     2.019000000     2.448000000
C    -0.544000000     1.886000000     4.518000000
C    -1.242000000     0.911000000     5.146000000
H    -2.197000000     0.597000000     4.733000000
C     0.742000000     2.186000000     4.971000000
H     1.365000000     2.947000000     4.509000000
C     1.168000000     1.689000000     6.233000000
O     2.379000000     2.105000000     6.816000000
C     0.371000000     0.674000000     6.874000000
H     0.712000000     0.207000000     7.794000000
C    -0.756000000     0.273000000     6.258000000
O    -1.466000000    -0.731000000     6.859000000
C    -2.109000000    -1.666000000     6.129000000
C    -1.608000000    -2.105000000     4.941000000
H    -0.710000000    -1.614000000     4.573000000
C    -3.344000000    -2.238000000     6.617000000
H    -3.808000000    -1.811000000     7.502000000
C    -3.897000000    -3.295000000     5.896000000
H    -4.728000000    -3.829000000     6.350000000
C    -3.318000000    -3.826000000     4.725000000
H    -3.808000000    -4.647000000     4.209000000
C    -2.115000000    -3.239000000     4.272000000
O    -1.536000000    -3.793000000     3.210000000
C    -2.141000000    -3.765000000     2.020000000
C    -2.203000000    -4.964000000     1.289000000
H    -1.662000000    -5.821000000     1.681000000
C    -2.731000000    -4.944000000     0.013000000
O    -2.628000000    -6.144000000    -0.650000000
C    -2.683000000    -6.145000000    -2.020000000
C    -1.420000000    -5.989000000    -2.608000000
H    -0.541000000    -5.818000000    -1.992000000
C    -3.875000000    -6.458000000    -2.796000000
H    -4.820000000    -6.676000000    -2.305000000
C    -3.741000000    -6.458000000    -4.179000000
H    -4.622000000    -6.615000000    -4.797000000
C    -2.420000000    -6.423000000    -4.737000000
H    -2.285000000    -6.460000000    -5.815000000
C    -1.309000000    -6.108000000    -3.920000000
O     0.006000000    -5.945000000    -4.351000000
C     0.761000000    -4.731000000    -4.457000000
C     2.164000000    -4.723000000    -4.586000000
H     2.653000000    -5.691000000    -4.524000000
C     2.890000000    -3.561000000    -4.590000000
O     4.289000000    -3.556000000    -4.544000000
C     5.077000000    -2.728000000    -3.683000000
C     4.837000000    -2.602000000    -2.335000000
H     4.035000000    -3.244000000    -1.980000000
C     6.008000000    -1.898000000    -4.309000000
H     6.313000000    -2.062000000    -5.339000000
C     6.547000000    -0.811000000    -3.619000000
H     7.254000000    -0.127000000    -4.080000000
C     6.251000000    -0.705000000    -2.297000000
H     6.563000000     0.179000000    -1.747000000
C     5.353000000    -1.540000000    -1.630000000
O     4.931000000    -1.349000000    -0.269000000
C     4.846000000    -0.052000000     0.163000000
C     5.297000000     0.141000000     1.457000000
H     5.727000000    -0.709000000     1.979000000
C     5.094000000     1.373000000     2.020000000
O     5.647000000     1.622000000     3.273000000
C     5.020000000     2.395000000     4.311000000
C     5.719000000     3.555000000     4.761000000
H     6.674000000     3.880000000     4.354000000
C     5.211000000     4.248000000     5.824000000
H     5.696000000     5.069000000     6.346000000
C     4.153000000     3.690000000     6.541000000
H     3.785000000     4.197000000     7.429000000
C     3.530000000     2.551000000     6.173000000
C     3.928000000     1.855000000     4.945000000
H     3.443000000     0.951000000     4.587000000
C     1.864000000    -1.187000000     1.581000000
H     2.446000000    -1.038000000     2.488000000
C     1.063000000    -0.212000000     1.010000000
H     0.944000000     0.767000000     1.467000000
C     0.359000000    -0.310000000    -0.202000000
H    -0.338000000     0.436000000    -0.575000000
C     0.490000000    -1.475000000    -0.855000000
H    -0.082000000    -1.719000000    -1.747000000
C     1.309000000    -2.485000000    -0.349000000
H     1.369000000    -3.421000000    -0.898000000
C     1.952000000    -2.352000000     0.892000000
C     2.826000000    -3.436000000     1.417000000
O     2.831000000    -4.506000000     0.828000000
O     3.610000000    -3.276000000     2.356000000
O     2.697000000    -3.065000000     6.865000000
H     3.375000000    -3.023000000     7.539000000
H     1.878000000    -3.144000000     7.355000000
O     7.630000000    -2.996000000     4.349000000
H     7.392000000    -2.284000000     4.942000000
H     7.670000000    -3.771000000     4.910000000
O     8.585000000    -2.077000000     0.559000000
H     8.578000000    -2.378000000    -0.350000000
H     7.772000000    -2.420000000     0.931000000
O     2.645000000    -8.796000000     2.395000000
H     2.609000000    -7.840000000     2.354000000
H     1.811000000    -9.051000000     2.790000000
O     5.546000000    -5.533000000     0.532000000
H     6.069000000    -4.775000000     0.790000000
H     4.731000000    -5.160000000     0.196000000
O     6.678000000    -0.580000000     5.669000000
H     6.707000000     0.340000000     5.407000000
H     5.775000000    -0.849000000     5.497000000
O    -0.745000000    -6.088000000     5.276000000
H    -1.008000000    -6.739000000     4.624000000
H    -0.532000000    -5.309000000     4.763000000
O     3.225000000    -7.029000000     4.974000000
H     4.055000000    -6.732000000     4.601000000
H     2.559000000    -6.692000000     4.375000000
O     1.925000000    -4.073000000     4.439000000
H     2.312000000    -3.520000000     3.760000000
H     2.238000000    -3.697000000     5.261000000
O    -0.095000000    -7.969000000     0.537000000
H    -0.528000000    -8.376000000    -0.214000000
H     0.212000000    -7.124000000     0.208000000
O     1.562000000    -6.071000000     2.606000000
H     1.503000000    -5.419000000     3.304000000
H     1.948000000    -5.597000000     1.869000000
O    -1.007000000    -7.977000000     3.054000000
H    -0.704000000    -7.845000000     2.156000000
H    -0.208000000    -8.149000000     3.554000000
O     4.795000000    -5.409000000     3.545000000
H     4.324000000    -4.706000000     3.098000000
H     5.308000000    -5.831000000     2.856000000
O     6.919000000    -5.227000000     5.457000000
H     6.178000000    -5.166000000     4.854000000
H     6.869000000    -6.116000000     5.809000000
O     1.664000000    -6.163000000    -0.743000000
H     2.202000000    -6.954000000    -0.699000000
H     2.211000000    -5.480000000    -0.355000000
O     6.453000000    -7.649000000    -0.722000000
H     7.369000000    -7.538000000    -0.469000000
H     5.982000000    -6.990000000    -0.211000000
O     3.441000000    -8.118000000    -0.788000000
H     4.388000000    -8.255000000    -0.751000000
H     3.100000000    -8.598000000    -0.033000000
O     4.275000000    -1.631000000     4.764000000
H     3.627000000    -2.063000000     5.320000000
H     4.216000000    -2.091000000     3.926000000
O     6.547000000    -3.251000000     1.809000000
H     5.597000000    -3.136000000     1.766000000
H     6.756000000    -3.169000000     2.740000000
