215
-1449.90388
C    -3.257000000     4.104000000     1.746000000
H    -3.120000000     4.902000000     1.021000000
C    -2.205000000     3.379000000     2.243000000
C    -2.445000000     2.285000000     3.050000000
H    -1.616000000     1.706000000     3.448000000
C    -0.771000000     3.748000000     1.874000000
O    -0.568000000     5.027000000     1.256000000
H    -0.482000000     2.944000000     1.182000000
O     0.147000000     3.676000000     2.999000000
C     1.373000000     2.995000000     2.966000000
C     1.527000000     1.789000000     3.597000000
H     0.644000000     1.298000000     3.999000000
C     2.651000000     1.022000000     3.432000000
O     2.759000000    -0.255000000     4.004000000
C     3.792000000     1.550000000     2.712000000
C     5.059000000     0.792000000     2.436000000
H     5.929000000     1.410000000     2.202000000
C     4.936000000    -0.149000000     1.274000000
C     5.243000000     0.187000000    -0.024000000
H     5.638000000     1.135000000    -0.379000000
H     5.390000000     0.211000000     3.299000000
C     3.619000000     2.784000000     2.016000000
H     4.415000000     3.066000000     1.332000000
C     2.419000000     3.493000000     2.181000000
C     2.299000000     4.853000000     1.481000000
H     3.288000000     5.259000000     1.258000000
H     1.777000000     5.517000000     2.172000000
C     1.557000000     4.733000000     0.159000000
C     2.268000000     4.457000000    -1.009000000
H     3.353000000     4.466000000    -0.945000000
C     0.146000000     4.905000000     0.115000000
C    -0.520000000     4.691000000    -1.060000000
H    -1.602000000     4.793000000    -1.064000000
C     0.172000000     4.412000000    -2.214000000
O    -0.551000000     3.891000000    -3.300000000
C    -0.720000000     2.406000000    -3.432000000
C    -2.133000000     2.012000000    -3.600000000
C    -2.354000000     0.658000000    -3.673000000
H    -1.474000000     0.020000000    -3.671000000
C    -3.181000000     2.892000000    -3.440000000
H    -3.042000000     3.969000000    -3.474000000
O     0.202000000     1.964000000    -4.471000000
H    -0.356000000     2.053000000    -2.455000000
C     1.563000000     4.190000000    -2.182000000
C     2.270000000     3.755000000    -3.428000000
H     3.247000000     4.233000000    -3.536000000
H     1.733000000     4.191000000    -4.273000000
C     2.409000000     2.284000000    -3.557000000
C     3.590000000     1.695000000    -3.074000000
H     4.339000000     2.326000000    -2.601000000
C     1.382000000     1.440000000    -4.033000000
C     1.521000000     0.062000000    -4.105000000
H     0.696000000    -0.572000000    -4.419000000
C     2.771000000    -0.443000000    -3.651000000
O     2.807000000    -1.837000000    -3.720000000
C     2.684000000    -2.593000000    -2.465000000
C     1.921000000    -3.911000000    -2.651000000
C     0.786000000    -4.002000000    -3.423000000
H     0.491000000    -3.127000000    -3.996000000
C     2.208000000    -5.031000000    -1.881000000
H     3.121000000    -5.056000000    -1.292000000
O     3.956000000    -2.814000000    -1.843000000
H     2.033000000    -2.006000000    -1.800000000
C     3.819000000     0.341000000    -3.141000000
C     5.104000000    -0.188000000    -2.588000000
H     5.961000000     0.489000000    -2.574000000
H     5.297000000    -1.071000000    -3.201000000
C     4.864000000    -0.640000000    -1.113000000
C     4.326000000    -1.899000000    -0.858000000
C     3.977000000    -2.175000000     0.417000000
H     3.442000000    -3.117000000     0.507000000
C     4.241000000    -1.355000000     1.531000000
O     3.773000000    -1.824000000     2.752000000
C     2.479000000    -1.381000000     3.221000000
H     1.913000000    -0.892000000     2.415000000
C     1.530000000    -2.345000000     3.922000000
C     0.688000000    -2.015000000     4.949000000
H     0.804000000    -1.091000000     5.510000000
C     1.328000000    -3.662000000     3.328000000
H     2.005000000    -3.866000000     2.502000000
C     0.286000000    -4.501000000     3.679000000
O    -0.043000000    -5.678000000     3.020000000
C    -0.609000000    -4.079000000     4.676000000
H    -1.427000000    -4.738000000     4.955000000
C    -0.425000000    -2.862000000     5.299000000
O    -1.332000000    -2.535000000     6.206000000
C    -1.769000000    -1.246000000     6.164000000
C    -2.620000000    -0.872000000     5.176000000
H    -2.889000000    -1.587000000     4.402000000
C    -1.284000000    -0.346000000     7.096000000
H    -0.469000000    -0.714000000     7.713000000
C    -1.699000000     0.968000000     7.121000000
H    -1.282000000     1.751000000     7.748000000
C    -2.755000000     1.270000000     6.256000000
H    -3.182000000     2.270000000     6.241000000
C    -3.135000000     0.403000000     5.220000000
O    -3.960000000     0.869000000     4.300000000
C    -3.706000000     1.910000000     3.474000000
C    -4.755000000     2.658000000     2.962000000
H    -5.761000000     2.426000000     3.303000000
C    -4.563000000     3.708000000     2.030000000
O    -5.654000000     4.383000000     1.571000000
C    -5.681000000     4.626000000     0.183000000
C    -5.606000000     3.666000000    -0.816000000
H    -5.339000000     2.653000000    -0.525000000
C    -6.064000000     5.918000000    -0.196000000
H    -6.132000000     6.701000000     0.555000000
C    -6.273000000     6.305000000    -1.514000000
H    -6.463000000     7.307000000    -1.892000000
C    -6.028000000     5.364000000    -2.468000000
H    -6.065000000     5.620000000    -3.523000000
C    -5.685000000     4.075000000    -2.184000000
O    -5.497000000     3.274000000    -3.300000000
C    -4.525000000     2.413000000    -3.363000000
C    -4.731000000     1.035000000    -3.291000000
H    -5.763000000     0.734000000    -3.130000000
C    -3.659000000     0.133000000    -3.516000000
O    -3.877000000    -1.258000000    -3.627000000
C    -3.092000000    -2.080000000    -4.466000000
C    -2.535000000    -3.274000000    -3.965000000
H    -2.685000000    -3.516000000    -2.916000000
C    -2.913000000    -1.657000000    -5.732000000
H    -3.358000000    -0.758000000    -6.149000000
C    -1.987000000    -2.423000000    -6.470000000
H    -1.779000000    -2.045000000    -7.468000000
C    -1.422000000    -3.607000000    -6.075000000
H    -0.770000000    -4.230000000    -6.682000000
C    -1.716000000    -4.076000000    -4.781000000
O    -1.136000000    -5.191000000    -4.321000000
C     0.002000000    -5.174000000    -3.491000000
C     0.299000000    -6.231000000    -2.663000000
H    -0.390000000    -7.072000000    -2.645000000
C     1.462000000    -6.199000000    -1.899000000
O     1.910000000    -7.229000000    -1.101000000
C     1.871000000    -7.241000000     0.301000000
C     2.657000000    -8.134000000     0.992000000
H     3.280000000    -8.876000000     0.499000000
C     2.669000000    -8.126000000     2.376000000
H     3.378000000    -8.704000000     2.964000000
C     1.615000000    -7.399000000     3.017000000
H     1.339000000    -7.495000000     4.064000000
C     0.866000000    -6.422000000     2.310000000
C     1.072000000    -6.346000000     0.954000000
H     0.544000000    -5.590000000     0.380000000
C    -0.896000000    -2.237000000     0.444000000
H    -0.810000000    -3.234000000     0.867000000
C     0.240000000    -1.462000000     0.086000000
H     1.285000000    -1.693000000     0.276000000
C     0.076000000    -0.095000000    -0.063000000
H     0.954000000     0.588000000    -0.236000000
C    -1.176000000     0.443000000    -0.137000000
H    -1.300000000     1.498000000    -0.365000000
C    -2.281000000    -0.436000000     0.035000000
H    -3.284000000    -0.028000000    -0.071000000
C    -2.193000000    -1.786000000     0.336000000
C    -3.471000000    -2.536000000     0.655000000
O    -4.526000000    -1.898000000     0.770000000
O    -3.565000000    -3.741000000     0.460000000
O    -2.647000000    -8.195000000     1.828000000
H    -2.140000000    -8.608000000     1.129000000
H    -3.365000000    -8.805000000     1.996000000
O    -6.881000000    -3.592000000     6.038000000
H    -6.875000000    -4.549000000     6.031000000
H    -6.635000000    -3.344000000     5.147000000
O    -7.929000000    -2.856000000    -3.296000000
H    -8.327000000    -2.059000000    -3.647000000
H    -7.309000000    -2.544000000    -2.637000000
O    -5.628000000    -4.589000000    -0.970000000
H    -6.038000000    -3.739000000    -1.130000000
H    -4.796000000    -4.377000000    -0.545000000
O    -7.846000000    -5.005000000     3.424000000
H    -8.377000000    -4.243000000     3.192000000
H    -6.994000000    -4.834000000     3.022000000
O    -8.795000000    -1.149000000     0.421000000
H    -8.545000000    -1.722000000     1.147000000
H    -9.029000000    -0.321000000     0.839000000
O    -1.050000000    -8.730000000    -0.588000000
H    -0.987000000    -8.900000000    -1.528000000
H    -1.539000000    -7.909000000    -0.526000000
O    -6.402000000    -0.612000000     4.300000000
H    -6.933000000    -0.365000000     5.057000000
H    -5.585000000    -0.127000000     4.412000000
O    -5.568000000    -4.102000000     2.356000000
H    -5.330000000    -3.282000000     1.924000000
H    -4.763000000    -4.620000000     2.345000000
O    -6.024000000    -7.238000000    -0.501000000
H    -6.193000000    -7.355000000     0.434000000
H    -5.964000000    -6.289000000    -0.616000000
O    -8.316000000    -2.121000000     3.177000000
H    -7.578000000    -1.585000000     3.469000000
H    -9.065000000    -1.786000000     3.669000000
O    -2.923000000    -6.853000000     4.653000000
H    -3.389000000    -6.335000000     3.997000000
H    -3.077000000    -7.762000000     4.395000000
O    -4.142000000    -7.145000000    -2.366000000
H    -4.978000000    -7.127000000    -1.900000000
H    -4.249000000    -7.831000000    -3.025000000
O    -2.613000000    -6.144000000    -0.572000000
H    -3.177000000    -6.503000000    -1.257000000
H    -2.925000000    -5.247000000    -0.451000000
O    -3.458000000    -5.654000000     2.142000000
H    -3.287000000    -4.955000000     1.511000000
H    -2.936000000    -6.392000000     1.828000000
O    -6.011000000     0.090000000     1.088000000
H    -6.233000000     0.237000000     2.008000000
H    -5.416000000    -0.660000000     1.102000000
O    -6.168000000    -1.790000000    -1.367000000
H    -6.877000000    -1.249000000    -1.021000000
H    -5.472000000    -1.719000000    -0.713000000
O    -8.367000000     1.730000000     1.206000000
H    -7.538000000     1.253000000     1.158000000
H    -8.198000000     2.549000000     0.739000000
O    -7.013000000    -7.340000000     2.113000000
H    -7.739000000    -6.762000000     2.350000000
H    -6.313000000    -7.107000000     2.723000000
