215
-1442.13727
C    -2.764000000     2.959000000     2.121000000
H    -2.512000000     3.141000000     1.079000000
C    -1.720000000     2.968000000     3.015000000
C    -2.021000000     2.437000000     4.270000000
H    -1.203000000     2.391000000     4.984000000
C    -0.368000000     3.339000000     2.488000000
O    -0.389000000     4.562000000     1.721000000
H     0.034000000     2.588000000     1.791000000
O     0.547000000     3.532000000     3.521000000
C     1.785000000     2.934000000     3.348000000
C     2.003000000     1.627000000     3.888000000
H     1.317000000     1.299000000     4.665000000
C     3.063000000     0.869000000     3.508000000
O     3.030000000    -0.492000000     3.953000000
C     3.947000000     1.413000000     2.570000000
C     5.045000000     0.519000000     2.077000000
H     5.925000000     1.123000000     1.846000000
C     4.733000000    -0.377000000     0.834000000
C     4.977000000     0.044000000    -0.473000000
H     5.433000000     1.005000000    -0.695000000
H     5.349000000    -0.064000000     2.949000000
C     3.826000000     2.690000000     2.094000000
H     4.509000000     2.991000000     1.304000000
C     2.720000000     3.491000000     2.427000000
C     2.518000000     4.745000000     1.652000000
H     3.463000000     5.259000000     1.468000000
H     1.986000000     5.471000000     2.270000000
C     1.666000000     4.528000000     0.422000000
C     2.198000000     4.342000000    -0.883000000
H     3.269000000     4.171000000    -0.961000000
C     0.241000000     4.519000000     0.499000000
C    -0.558000000     4.419000000    -0.657000000
H    -1.645000000     4.405000000    -0.626000000
C     0.031000000     4.176000000    -1.893000000
O    -0.798000000     3.927000000    -2.932000000
C    -0.837000000     2.705000000    -3.593000000
C    -2.354000000     2.459000000    -3.956000000
C    -2.650000000     1.146000000    -4.366000000
H    -1.776000000     0.515000000    -4.504000000
C    -3.370000000     3.214000000    -3.554000000
H    -3.182000000     4.148000000    -3.030000000
O     0.118000000     2.522000000    -4.719000000
H    -0.690000000     1.903000000    -2.856000000
C     1.450000000     4.213000000    -2.023000000
C     2.179000000     4.079000000    -3.363000000
H     3.152000000     4.574000000    -3.319000000
H     1.735000000     4.680000000    -4.160000000
C     2.314000000     2.578000000    -3.742000000
C     3.407000000     1.823000000    -3.281000000
H     4.244000000     2.402000000    -2.900000000
C     1.300000000     1.910000000    -4.396000000
C     1.345000000     0.504000000    -4.474000000
H     0.476000000    -0.022000000    -4.862000000
C     2.352000000    -0.250000000    -3.954000000
O     2.160000000    -1.617000000    -4.014000000
C     2.061000000    -2.438000000    -2.837000000
C     1.203000000    -3.694000000    -3.021000000
C     0.029000000    -3.574000000    -3.755000000
H    -0.150000000    -2.583000000    -4.165000000
C     1.576000000    -4.861000000    -2.357000000
H     2.333000000    -4.794000000    -1.580000000
O     3.450000000    -2.683000000    -2.353000000
H     1.529000000    -1.799000000    -2.116000000
C     3.447000000     0.408000000    -3.371000000
C     4.739000000    -0.263000000    -2.915000000
H     5.651000000     0.337000000    -2.941000000
H     4.881000000    -1.142000000    -3.548000000
C     4.570000000    -0.732000000    -1.551000000
C     3.919000000    -1.960000000    -1.309000000
C     3.750000000    -2.414000000     0.013000000
H     3.176000000    -3.333000000     0.109000000
C     4.074000000    -1.613000000     1.043000000
O     3.711000000    -2.078000000     2.284000000
C     2.562000000    -1.418000000     2.952000000
H     1.963000000    -0.874000000     2.207000000
C     1.652000000    -2.448000000     3.572000000
C     0.988000000    -2.179000000     4.795000000
H     1.177000000    -1.278000000     5.374000000
C     1.314000000    -3.597000000     2.813000000
H     1.716000000    -3.807000000     1.825000000
C     0.280000000    -4.428000000     3.325000000
O    -0.230000000    -5.369000000     2.462000000
C    -0.357000000    -4.130000000     4.516000000
H    -1.249000000    -4.724000000     4.699000000
C    -0.011000000    -3.054000000     5.260000000
O    -0.686000000    -2.701000000     6.397000000
C    -0.951000000    -1.409000000     6.761000000
C    -1.920000000    -0.730000000     6.017000000
H    -2.502000000    -1.170000000     5.210000000
C    -0.285000000    -0.829000000     7.822000000
H     0.636000000    -1.214000000     8.253000000
C    -0.684000000     0.469000000     8.319000000
H    -0.220000000     0.989000000     9.153000000
C    -1.697000000     1.141000000     7.558000000
H    -2.039000000     2.097000000     7.946000000
C    -2.321000000     0.548000000     6.494000000
O    -3.428000000     1.151000000     5.798000000
C    -3.294000000     1.866000000     4.614000000
C    -4.371000000     2.050000000     3.740000000
H    -5.337000000     1.619000000     3.990000000
C    -4.086000000     2.566000000     2.495000000
O    -5.059000000     2.559000000     1.505000000
C    -5.109000000     3.584000000     0.505000000
C    -5.372000000     3.155000000    -0.816000000
H    -5.526000000     2.100000000    -1.027000000
C    -5.063000000     4.916000000     0.843000000
H    -4.928000000     5.076000000     1.910000000
C    -5.275000000     5.860000000    -0.129000000
H    -5.137000000     6.927000000     0.024000000
C    -5.501000000     5.488000000    -1.437000000
H    -5.433000000     6.246000000    -2.213000000
C    -5.513000000     4.124000000    -1.774000000
O    -5.620000000     3.683000000    -3.065000000
C    -4.687000000     2.835000000    -3.614000000
C    -5.000000000     1.569000000    -4.030000000
H    -5.929000000     1.066000000    -3.773000000
C    -3.992000000     0.689000000    -4.320000000
O    -4.359000000    -0.627000000    -4.328000000
C    -3.602000000    -1.460000000    -5.011000000
C    -3.183000000    -2.610000000    -4.326000000
H    -3.641000000    -2.771000000    -3.354000000
C    -3.164000000    -1.157000000    -6.322000000
H    -3.476000000    -0.209000000    -6.751000000
C    -2.295000000    -2.070000000    -6.943000000
H    -2.012000000    -1.714000000    -7.930000000
C    -1.921000000    -3.243000000    -6.291000000
H    -1.332000000    -4.015000000    -6.780000000
C    -2.345000000    -3.493000000    -5.015000000
O    -2.016000000    -4.613000000    -4.420000000
C    -0.739000000    -4.737000000    -3.929000000
C    -0.433000000    -5.892000000    -3.208000000
H    -1.169000000    -6.681000000    -3.074000000
C     0.714000000    -5.947000000    -2.440000000
O     1.007000000    -7.133000000    -1.758000000
C     1.253000000    -7.013000000    -0.394000000
C     2.207000000    -7.846000000     0.184000000
H     2.777000000    -8.501000000    -0.469000000
C     2.369000000    -7.881000000     1.572000000
H     3.105000000    -8.519000000     2.055000000
C     1.548000000    -7.051000000     2.345000000
H     1.552000000    -7.230000000     3.417000000
C     0.585000000    -6.190000000     1.762000000
C     0.368000000    -6.181000000     0.381000000
H    -0.278000000    -5.465000000    -0.120000000
C    -1.718000000    -1.954000000     0.789000000
H    -1.777000000    -2.961000000     1.193000000
C    -0.481000000    -1.320000000     0.511000000
H     0.446000000    -1.878000000     0.619000000
C    -0.502000000    -0.103000000    -0.043000000
H     0.436000000     0.424000000    -0.180000000
C    -1.677000000     0.554000000    -0.331000000
H    -1.804000000     1.555000000    -0.735000000
C    -2.875000000    -0.084000000    -0.147000000
H    -3.776000000     0.455000000    -0.432000000
C    -2.914000000    -1.298000000     0.551000000
C    -4.240000000    -1.961000000     0.728000000
O    -5.222000000    -1.232000000     0.762000000
O    -4.364000000    -3.086000000     1.105000000
O    -6.798000000    -4.883000000     4.677000000
H    -6.260000000    -5.674000000     4.675000000
H    -6.749000000    -4.558000000     3.778000000
O    -3.631000000    -4.252000000     6.039000000
H    -3.960000000    -4.980000000     5.513000000
H    -3.404000000    -3.577000000     5.399000000
O    -6.905000000    -2.754000000     6.376000000
H    -7.817000000    -2.909000000     6.623000000
H    -6.702000000    -3.455000000     5.756000000
O    -5.053000000    -4.405000000    -1.330000000
H    -5.877000000    -4.063000000    -1.677000000
H    -4.753000000    -3.733000000    -0.717000000
O   -10.026000000    -4.258000000     1.198000000
H    -9.850000000    -4.589000000     0.317000000
H    -9.300000000    -4.589000000     1.726000000
O    -4.758000000    -6.933000000    -2.617000000
H    -5.046000000    -6.742000000    -3.510000000
H    -4.764000000    -6.083000000    -2.176000000
O    -5.883000000    -1.930000000     3.427000000
H    -5.626000000    -1.623000000     2.557000000
H    -6.729000000    -1.512000000     3.588000000
O    -3.356000000    -2.979000000     3.548000000
H    -4.075000000    -2.392000000     3.781000000
H    -3.517000000    -3.203000000     2.631000000
O    -6.728000000    -4.132000000     2.009000000
H    -6.022000000    -4.237000000     1.371000000
H    -6.601000000    -3.253000000     2.365000000
O    -8.330000000    -0.548000000     3.821000000
H    -8.686000000    -0.285000000     4.670000000
H    -9.098000000    -0.791000000     3.304000000
O    -2.390000000    -7.731000000     3.029000000
H    -2.028000000    -8.564000000     2.728000000
H    -2.327000000    -7.153000000     2.269000000
O    -7.124000000    -6.635000000     1.081000000
H    -7.007000000    -5.759000000     1.449000000
H    -8.070000000    -6.780000000     1.105000000
O    -2.934000000    -5.936000000     0.989000000
H    -3.256000000    -5.051000000     1.164000000
H    -3.565000000    -6.302000000     0.369000000
O    -5.624000000    -0.300000000     6.749000000
H    -5.159000000     0.121000000     6.026000000
H    -6.035000000    -1.069000000     6.354000000
O    -7.587000000     0.220000000     0.586000000
H    -7.856000000     0.051000000    -0.317000000
H    -6.821000000    -0.339000000     0.716000000
O    -7.170000000    -1.792000000    -3.737000000
H    -6.428000000    -1.190000000    -3.776000000
H    -7.269000000    -1.991000000    -2.806000000
O    -7.312000000    -4.635000000    -3.514000000
H    -6.872000000    -3.944000000    -4.010000000
H    -7.634000000    -5.241000000    -4.182000000
O    -7.143000000    -2.221000000    -1.041000000
H    -7.911000000    -2.174000000    -0.472000000
H    -6.430000000    -1.865000000    -0.511000000
O    -8.345000000     2.021000000     2.181000000
H    -8.310000000     1.516000000     2.993000000
H    -8.084000000     1.400000000     1.501000000
