215
-1440.91179
C    -2.672000000     3.776000000     2.390000000
H    -2.633000000     4.414000000     1.511000000
C    -1.475000000     3.284000000     2.944000000
C    -1.419000000     2.449000000     4.078000000
H    -0.446000000     2.095000000     4.410000000
C    -0.154000000     3.506000000     2.213000000
O    -0.086000000     4.765000000     1.552000000
H    -0.018000000     2.711000000     1.465000000
O     0.896000000     3.476000000     3.196000000
C     2.104000000     2.847000000     2.818000000
C     2.256000000     1.622000000     3.378000000
H     1.582000000     1.261000000     4.151000000
C     3.327000000     0.877000000     2.970000000
O     3.510000000    -0.398000000     3.524000000
C     4.242000000     1.364000000     1.987000000
C     5.359000000     0.396000000     1.476000000
H     6.216000000     0.938000000     1.069000000
C     4.758000000    -0.609000000     0.455000000
C     4.930000000    -0.333000000    -0.899000000
H     5.507000000     0.526000000    -1.230000000
H     5.858000000    -0.188000000     2.251000000
C     4.033000000     2.641000000     1.470000000
H     4.786000000     3.032000000     0.790000000
C     2.991000000     3.432000000     1.968000000
C     2.746000000     4.778000000     1.335000000
H     3.607000000     5.398000000     1.075000000
H     2.309000000     5.298000000     2.190000000
C     1.840000000     4.732000000     0.109000000
C     2.382000000     4.403000000    -1.171000000
H     3.465000000     4.422000000    -1.268000000
C     0.473000000     4.891000000     0.292000000
C    -0.395000000     4.519000000    -0.663000000
H    -1.456000000     4.474000000    -0.433000000
C     0.122000000     4.179000000    -1.947000000
O    -0.858000000     3.901000000    -2.911000000
C    -1.026000000     2.542000000    -3.334000000
C    -2.487000000     2.081000000    -3.559000000
C    -2.879000000     1.115000000    -4.508000000
H    -2.138000000     0.718000000    -5.197000000
C    -3.443000000     2.641000000    -2.742000000
H    -3.184000000     3.291000000    -1.911000000
O    -0.198000000     2.387000000    -4.534000000
H    -0.699000000     1.862000000    -2.534000000
C     1.530000000     4.149000000    -2.171000000
C     2.119000000     3.787000000    -3.562000000
H     3.102000000     4.240000000    -3.706000000
H     1.579000000     4.263000000    -4.383000000
C     2.123000000     2.285000000    -3.804000000
C     3.273000000     1.539000000    -3.556000000
H     4.174000000     2.048000000    -3.222000000
C     0.938000000     1.673000000    -4.330000000
C     0.842000000     0.302000000    -4.433000000
H    -0.130000000    -0.161000000    -4.581000000
C     2.001000000    -0.488000000    -4.154000000
O     1.841000000    -1.902000000    -4.050000000
C     1.670000000    -2.535000000    -2.757000000
C     0.557000000    -3.679000000    -2.792000000
C    -0.637000000    -3.467000000    -3.381000000
H    -0.874000000    -2.533000000    -3.883000000
C     0.774000000    -4.880000000    -2.088000000
H     1.671000000    -5.161000000    -1.543000000
O     2.966000000    -3.097000000    -2.288000000
H     1.325000000    -1.841000000    -1.976000000
C     3.215000000     0.165000000    -3.739000000
C     4.344000000    -0.745000000    -3.341000000
H     5.243000000    -0.196000000    -3.628000000
H     4.358000000    -1.683000000    -3.901000000
C     4.360000000    -1.161000000    -1.872000000
C     3.717000000    -2.337000000    -1.453000000
C     3.595000000    -2.700000000    -0.168000000
H     3.114000000    -3.594000000     0.222000000
C     4.109000000    -1.802000000     0.791000000
O     3.924000000    -2.163000000     2.091000000
C     2.869000000    -1.512000000     2.766000000
H     2.236000000    -1.144000000     1.945000000
C     2.113000000    -2.477000000     3.679000000
C     1.690000000    -2.080000000     4.981000000
H     1.910000000    -1.104000000     5.405000000
C     1.717000000    -3.687000000     3.178000000
H     1.836000000    -3.869000000     2.113000000
C     0.855000000    -4.512000000     3.849000000
O     0.437000000    -5.727000000     3.319000000
C     0.377000000    -4.140000000     5.127000000
H    -0.288000000    -4.790000000     5.690000000
C     0.703000000    -2.889000000     5.689000000
O     0.117000000    -2.356000000     6.786000000
C    -0.324000000    -1.047000000     6.961000000
C    -1.377000000    -0.549000000     6.202000000
H    -1.905000000    -1.032000000     5.385000000
C     0.273000000    -0.260000000     7.923000000
H     1.013000000    -0.695000000     8.589000000
C    -0.092000000     1.054000000     8.116000000
H     0.416000000     1.575000000     8.924000000
C    -1.072000000     1.600000000     7.322000000
H    -1.337000000     2.648000000     7.432000000
C    -1.745000000     0.801000000     6.406000000
O    -2.781000000     1.225000000     5.688000000
C    -2.693000000     2.144000000     4.595000000
C    -3.901000000     2.631000000     4.151000000
H    -4.794000000     2.485000000     4.755000000
C    -3.918000000     3.439000000     2.983000000
O    -5.047000000     4.035000000     2.498000000
C    -5.205000000     4.363000000     1.209000000
C    -5.200000000     3.401000000     0.239000000
H    -5.099000000     2.342000000     0.463000000
C    -5.197000000     5.705000000     0.898000000
H    -5.068000000     6.457000000     1.673000000
C    -5.520000000     6.107000000    -0.376000000
H    -5.695000000     7.150000000    -0.627000000
C    -5.662000000     5.108000000    -1.366000000
H    -6.062000000     5.313000000    -2.356000000
C    -5.477000000     3.791000000    -1.046000000
O    -5.717000000     2.792000000    -1.949000000
C    -4.778000000     2.291000000    -2.828000000
C    -5.158000000     1.268000000    -3.674000000
H    -6.181000000     0.902000000    -3.710000000
C    -4.221000000     0.732000000    -4.581000000
O    -4.648000000    -0.268000000    -5.402000000
C    -3.982000000    -1.448000000    -5.589000000
C    -3.632000000    -2.278000000    -4.545000000
H    -3.806000000    -2.002000000    -3.508000000
C    -3.923000000    -1.930000000    -6.909000000
H    -4.264000000    -1.296000000    -7.724000000
C    -3.354000000    -3.192000000    -7.247000000
H    -3.062000000    -3.429000000    -8.267000000
C    -2.930000000    -4.009000000    -6.184000000
H    -2.561000000    -5.003000000    -6.421000000
C    -3.120000000    -3.574000000    -4.896000000
O    -2.926000000    -4.414000000    -3.867000000
C    -1.580000000    -4.586000000    -3.294000000
C    -1.399000000    -5.720000000    -2.531000000
H    -2.165000000    -6.466000000    -2.334000000
C    -0.178000000    -5.943000000    -1.914000000
O     0.022000000    -7.137000000    -1.112000000
C     0.768000000    -7.095000000    -0.034000000
C     2.104000000    -7.368000000    -0.064000000
H     2.550000000    -7.623000000    -1.022000000
C     2.888000000    -7.226000000     1.073000000
H     3.970000000    -7.323000000     1.054000000
C     2.373000000    -6.632000000     2.257000000
H     2.946000000    -6.446000000     3.162000000
C     0.983000000    -6.292000000     2.218000000
C     0.211000000    -6.476000000     1.047000000
H    -0.837000000    -6.189000000     1.053000000
C    -2.413000000    -2.523000000    -0.016000000
H    -2.539000000    -3.530000000     0.374000000
C    -1.243000000    -1.956000000     0.324000000
H    -0.425000000    -2.473000000     0.819000000
C    -1.028000000    -0.572000000    -0.097000000
H    -0.127000000    -0.002000000     0.103000000
C    -2.136000000     0.009000000    -0.720000000
H    -2.126000000     1.067000000    -0.969000000
C    -3.383000000    -0.562000000    -0.895000000
H    -4.257000000    -0.128000000    -1.373000000
C    -3.536000000    -1.913000000    -0.628000000
C    -4.811000000    -2.721000000    -0.900000000
O    -5.717000000    -2.198000000    -1.492000000
O    -4.924000000    -3.786000000    -0.292000000
O    -7.028000000    -3.516000000     1.705000000
H    -6.296000000    -3.488000000     1.089000000
H    -7.774000000    -3.183000000     1.207000000
O    -6.422000000    -6.252000000    -4.789000000
H    -5.948000000    -6.762000000    -4.132000000
H    -6.068000000    -6.552000000    -5.626000000
O    -4.909000000    -8.523000000    -1.221000000
H    -4.768000000    -8.962000000    -2.060000000
H    -4.927000000    -7.591000000    -1.439000000
O    -3.743000000    -5.281000000     1.643000000
H    -4.105000000    -4.791000000     0.905000000
H    -4.215000000    -6.113000000     1.633000000
O    -8.641000000    -2.000000000     0.069000000
H    -9.074000000    -2.838000000     0.234000000
H    -9.100000000    -1.378000000     0.634000000
O    -6.542000000    -3.969000000    -6.307000000
H    -6.193000000    -3.286000000    -5.735000000
H    -6.723000000    -4.704000000    -5.721000000
O    -7.712000000    -4.082000000    -2.023000000
H    -7.220000000    -4.043000000    -2.843000000
H    -7.313000000    -3.409000000    -1.472000000
O    -6.747000000    -5.897000000     2.832000000
H    -6.659000000    -4.959000000     2.663000000
H    -6.825000000    -6.291000000     1.963000000
O    -7.586000000    -6.340000000     0.114000000
H    -7.364000000    -5.958000000    -0.735000000
H    -8.098000000    -5.662000000     0.555000000
O    -6.642000000    -1.251000000     3.516000000
H    -6.089000000    -1.079000000     4.278000000
H    -6.375000000    -2.120000000     3.218000000
O    -9.951000000    -0.854000000    -3.057000000
H    -9.152000000    -0.678000000    -2.561000000
H   -10.655000000    -0.780000000    -2.412000000
O    -7.525000000    -0.256000000    -1.811000000
H    -7.967000000    -0.606000000    -1.038000000
H    -6.789000000    -0.851000000    -1.956000000
O    -5.017000000    -5.819000000    -2.108000000
H    -4.739000000    -5.433000000    -2.939000000
H    -5.069000000    -5.078000000    -1.505000000
O   -10.298000000    -4.465000000    -2.875000000
H   -10.644000000    -3.818000000    -2.260000000
H    -9.352000000    -4.451000000    -2.730000000
O    -6.445000000    -2.597000000    -3.996000000
H    -7.159000000    -1.970000000    -4.117000000
H    -6.099000000    -2.401000000    -3.125000000
O    -6.907000000     0.931000000     1.966000000
H    -6.875000000     0.190000000     2.571000000
H    -6.138000000     0.817000000     1.407000000
O    -2.477000000    -2.833000000     3.479000000
H    -2.316000000    -2.285000000     2.710000000
H    -2.809000000    -3.656000000     3.121000000
O    -3.732000000    -5.728000000     4.383000000
H    -3.535000000    -5.720000000     3.447000000
H    -3.499000000    -6.611000000     4.670000000
O    -9.765000000    -4.586000000     1.080000000
H   -10.514000000    -5.035000000     0.688000000
H    -9.855000000    -4.745000000     2.019000000
