215
-1461.85182
C    -2.709000000     2.769000000     2.964000000
H    -2.681000000     3.205000000     1.969000000
C    -1.473000000     2.546000000     3.588000000
C    -1.464000000     1.849000000     4.788000000
H    -0.571000000     1.685000000     5.384000000
C    -0.174000000     2.919000000     2.864000000
O    -0.309000000     4.221000000     2.192000000
H    -0.011000000     2.136000000     2.109000000
O     0.891000000     2.998000000     3.750000000
C     2.002000000     2.410000000     3.271000000
C     2.211000000     1.065000000     3.554000000
H     1.554000000     0.626000000     4.300000000
C     3.395000000     0.394000000     3.056000000
O     3.471000000    -0.952000000     3.305000000
C     4.271000000     1.053000000     2.185000000
C     5.315000000     0.209000000     1.490000000
H     5.971000000     0.897000000     0.953000000
C     4.692000000    -0.504000000     0.297000000
C     4.804000000    -0.005000000    -1.022000000
H     5.317000000     0.936000000    -1.205000000
H     5.814000000    -0.473000000     2.182000000
C     4.053000000     2.428000000     1.972000000
H     4.746000000     2.952000000     1.318000000
C     2.937000000     3.055000000     2.482000000
C     2.683000000     4.462000000     2.004000000
H     3.636000000     4.910000000     1.713000000
H     2.235000000     5.074000000     2.790000000
C     1.684000000     4.496000000     0.807000000
C     2.152000000     4.487000000    -0.540000000
H     3.231000000     4.458000000    -0.672000000
C     0.302000000     4.404000000     1.010000000
C    -0.600000000     4.331000000    -0.034000000
H    -1.658000000     4.258000000     0.205000000
C    -0.132000000     4.459000000    -1.330000000
O    -0.972000000     4.294000000    -2.429000000
C    -1.132000000     2.928000000    -2.976000000
C    -2.600000000     2.577000000    -3.156000000
C    -2.941000000     1.608000000    -4.076000000
H    -2.166000000     1.033000000    -4.577000000
C    -3.541000000     3.055000000    -2.279000000
H    -3.153000000     3.569000000    -1.403000000
O    -0.478000000     2.974000000    -4.214000000
H    -0.604000000     2.262000000    -2.277000000
C     1.253000000     4.495000000    -1.583000000
C     1.830000000     4.444000000    -3.028000000
H     2.865000000     4.793000000    -3.021000000
H     1.314000000     5.049000000    -3.776000000
C     1.910000000     2.987000000    -3.515000000
C     3.081000000     2.249000000    -3.339000000
H     3.890000000     2.728000000    -2.793000000
C     0.806000000     2.427000000    -4.163000000
C     0.886000000     1.057000000    -4.559000000
H    -0.039000000     0.565000000    -4.849000000
C     2.053000000     0.302000000    -4.326000000
O     2.028000000    -1.070000000    -4.568000000
C     1.885000000    -1.987000000    -3.440000000
C     0.856000000    -3.149000000    -3.632000000
C    -0.206000000    -3.008000000    -4.561000000
H    -0.282000000    -2.087000000    -5.134000000
C     0.892000000    -4.212000000    -2.702000000
H     1.681000000    -4.263000000    -1.957000000
O     3.261000000    -2.477000000    -3.134000000
H     1.668000000    -1.307000000    -2.603000000
C     3.195000000     0.895000000    -3.798000000
C     4.416000000     0.060000000    -3.464000000
H     5.332000000     0.651000000    -3.521000000
H     4.524000000    -0.734000000    -4.206000000
C     4.352000000    -0.619000000    -2.116000000
C     3.811000000    -1.843000000    -2.017000000
C     3.753000000    -2.475000000    -0.747000000
H     3.288000000    -3.457000000    -0.702000000
C     4.153000000    -1.775000000     0.402000000
O     3.806000000    -2.357000000     1.677000000
C     2.806000000    -1.845000000     2.464000000
H     2.070000000    -1.357000000     1.809000000
C     2.043000000    -2.881000000     3.255000000
C     1.561000000    -2.681000000     4.555000000
H     1.894000000    -1.781000000     5.066000000
C     1.558000000    -3.972000000     2.540000000
H     2.054000000    -4.273000000     1.621000000
C     0.554000000    -4.794000000     3.090000000
O     0.022000000    -5.885000000     2.499000000
C     0.183000000    -4.607000000     4.436000000
H    -0.491000000    -5.342000000     4.868000000
C     0.663000000    -3.529000000     5.163000000
O     0.303000000    -3.266000000     6.490000000
C    -0.108000000    -2.001000000     6.877000000
C    -1.231000000    -1.310000000     6.382000000
H    -1.880000000    -1.718000000     5.611000000
C     0.599000000    -1.487000000     7.897000000
H     1.510000000    -1.974000000     8.233000000
C     0.335000000    -0.210000000     8.418000000
H     0.947000000     0.199000000     9.217000000
C    -0.787000000     0.512000000     7.904000000
H    -0.925000000     1.547000000     8.205000000
C    -1.538000000    -0.087000000     6.916000000
O    -2.689000000     0.555000000     6.486000000
C    -2.685000000     1.361000000     5.355000000
C    -3.883000000     1.661000000     4.722000000
H    -4.805000000     1.203000000     5.072000000
C    -3.887000000     2.273000000     3.518000000
O    -5.118000000     2.457000000     2.931000000
C    -5.254000000     3.359000000     1.913000000
C    -5.582000000     2.900000000     0.657000000
H    -5.667000000     1.839000000     0.437000000
C    -5.116000000     4.776000000     2.168000000
H    -4.909000000     5.141000000     3.171000000
C    -5.140000000     5.634000000     1.046000000
H    -4.924000000     6.673000000     1.283000000
C    -5.360000000     5.128000000    -0.260000000
H    -5.483000000     5.770000000    -1.129000000
C    -5.627000000     3.741000000    -0.408000000
O    -5.840000000     3.260000000    -1.662000000
C    -4.905000000     2.773000000    -2.527000000
C    -5.307000000     1.823000000    -3.470000000
H    -6.328000000     1.543000000    -3.718000000
C    -4.287000000     1.245000000    -4.214000000
O    -4.646000000     0.267000000    -5.100000000
C    -3.844000000    -0.557000000    -5.787000000
C    -3.267000000    -1.674000000    -5.170000000
H    -3.443000000    -1.770000000    -4.102000000
C    -3.854000000    -0.517000000    -7.170000000
H    -4.308000000     0.371000000    -7.602000000
C    -3.188000000    -1.451000000    -7.929000000
H    -3.324000000    -1.338000000    -9.002000000
C    -2.802000000    -2.639000000    -7.361000000
H    -2.401000000    -3.460000000    -7.949000000
C    -2.772000000    -2.713000000    -5.947000000
O    -2.299000000    -3.898000000    -5.419000000
C    -1.218000000    -3.989000000    -4.561000000
C    -1.102000000    -5.172000000    -3.710000000
H    -1.958000000    -5.842000000    -3.697000000
C    -0.022000000    -5.224000000    -2.789000000
O    -0.008000000    -6.340000000    -2.052000000
C     0.739000000    -6.524000000    -0.914000000
C     1.924000000    -7.317000000    -0.857000000
H     2.405000000    -7.698000000    -1.754000000
C     2.403000000    -7.665000000     0.412000000
H     3.283000000    -8.296000000     0.510000000
C     1.810000000    -7.183000000     1.580000000
H     2.239000000    -7.522000000     2.519000000
C     0.721000000    -6.336000000     1.427000000
C     0.133000000    -6.089000000     0.241000000
H    -0.874000000    -5.681000000     0.222000000
C    -1.818000000    -2.544000000    -0.108000000
H    -1.888000000    -3.612000000    -0.299000000
C    -0.653000000    -1.820000000    -0.041000000
H     0.228000000    -2.456000000    -0.014000000
C    -0.605000000    -0.386000000    -0.057000000
H     0.321000000     0.187000000    -0.072000000
C    -1.803000000     0.312000000    -0.024000000
H    -1.889000000     1.391000000     0.076000000
C    -3.001000000    -0.489000000    -0.292000000
H    -3.883000000     0.130000000    -0.436000000
C    -3.015000000    -1.842000000    -0.411000000
C    -4.326000000    -2.651000000    -0.654000000
O    -5.300000000    -2.187000000    -1.247000000
O    -4.412000000    -3.697000000    -0.118000000
O    -6.648000000    -3.285000000     1.886000000
H    -5.863000000    -3.499000000     1.381000000
H    -6.380000000    -2.557000000     2.447000000
O    -3.677000000    -5.899000000    -1.765000000
H    -3.682000000    -5.239000000    -1.072000000
H    -3.315000000    -6.681000000    -1.348000000
O    -9.048000000    -3.407000000    -0.558000000
H    -9.900000000    -3.652000000    -0.197000000
H    -8.432000000    -4.018000000    -0.154000000
O    -6.301000000    -5.018000000    -1.530000000
H    -5.493000000    -5.491000000    -1.728000000
H    -6.045000000    -4.096000000    -1.530000000
O    -7.410000000    -5.178000000     3.822000000
H    -8.309000000    -5.213000000     3.493000000
H    -6.987000000    -4.504000000     3.290000000
O    -6.440000000    -6.404000000     0.898000000
H    -7.244000000    -6.065000000     1.292000000
H    -6.369000000    -5.942000000     0.063000000
O    -3.904000000    -6.346000000     1.834000000
H    -4.805000000    -6.285000000     1.519000000
H    -3.791000000    -7.269000000     2.059000000
O    -5.111000000    -1.304000000     3.419000000
H    -5.146000000    -1.426000000     4.368000000
H    -4.180000000    -1.195000000     3.225000000
O    -8.810000000     0.468000000    -2.396000000
H    -8.307000000    -0.090000000    -1.802000000
H    -9.722000000     0.226000000    -2.237000000
O    -5.791000000    -8.922000000     0.217000000
H    -6.148000000    -8.038000000     0.303000000
H    -5.397000000    -9.105000000     1.071000000
O    -7.621000000    -1.006000000    -0.672000000
H    -8.019000000    -1.748000000    -0.217000000
H    -6.780000000    -1.339000000    -0.983000000
O    -4.359000000    -6.706000000    -4.396000000
H    -3.635000000    -6.274000000    -4.850000000
H    -4.266000000    -6.434000000    -3.483000000
O    -8.181000000    -1.780000000     3.816000000
H    -8.429000000    -1.655000000     2.900000000
H    -7.915000000    -0.909000000     4.113000000
O    -8.664000000    -2.685000000    -3.951000000
H    -9.154000000    -2.692000000    -3.128000000
H    -7.784000000    -2.402000000    -3.703000000
O    -6.251000000    -1.980000000    -3.694000000
H    -5.682000000    -1.390000000    -4.188000000
H    -5.808000000    -2.093000000    -2.854000000
O    -7.332000000     0.105000000     1.695000000
H    -6.656000000    -0.444000000     2.093000000
H    -7.275000000    -0.085000000     0.759000000
O    -2.570000000    -1.318000000     2.897000000
H    -2.221000000    -1.003000000     2.063000000
H    -2.848000000    -2.216000000     2.717000000
O    -2.601000000    -4.088000000     3.079000000
H    -1.764000000    -4.547000000     3.010000000
H    -3.222000000    -4.651000000     2.617000000
O    -9.024000000    -6.180000000    -1.892000000
H    -8.201000000    -5.700000000    -1.986000000
H    -9.684000000    -5.601000000    -2.273000000
