215
-1474.96238
C    -3.059000000     3.810000000     2.614000000
H    -2.899000000     4.372000000     1.697000000
C    -1.930000000     3.228000000     3.209000000
C    -2.018000000     2.487000000     4.384000000
H    -1.159000000     2.005000000     4.845000000
C    -0.556000000     3.405000000     2.501000000
O    -0.464000000     4.574000000     1.637000000
H    -0.420000000     2.493000000     1.901000000
O     0.577000000     3.463000000     3.469000000
C     1.774000000     2.850000000     3.121000000
C     2.038000000     1.638000000     3.802000000
H     1.312000000     1.232000000     4.502000000
C     3.215000000     0.927000000     3.510000000
O     3.198000000    -0.394000000     3.883000000
C     4.057000000     1.443000000     2.504000000
C     5.240000000     0.651000000     1.882000000
H     5.821000000     1.342000000     1.269000000
C     4.849000000    -0.340000000     0.757000000
C     5.004000000     0.143000000    -0.531000000
H     5.272000000     1.183000000    -0.700000000
H     5.839000000     0.235000000     2.695000000
C     3.747000000     2.629000000     1.865000000
H     4.408000000     2.889000000     1.042000000
C     2.645000000     3.397000000     2.155000000
C     2.361000000     4.720000000     1.484000000
H     3.268000000     5.259000000     1.202000000
H     1.936000000     5.438000000     2.187000000
C     1.474000000     4.520000000     0.292000000
C     2.045000000     4.239000000    -0.966000000
H     3.127000000     4.143000000    -1.011000000
C     0.154000000     4.459000000     0.420000000
C    -0.741000000     4.274000000    -0.651000000
H    -1.807000000     4.394000000    -0.471000000
C    -0.162000000     4.106000000    -1.898000000
O    -0.946000000     3.916000000    -2.962000000
C    -0.997000000     2.506000000    -3.369000000
C    -2.465000000     2.163000000    -3.645000000
C    -2.881000000     1.145000000    -4.506000000
H    -2.102000000     0.651000000    -5.081000000
C    -3.463000000     2.731000000    -2.761000000
H    -3.255000000     3.584000000    -2.121000000
O    -0.193000000     2.416000000    -4.591000000
H    -0.558000000     1.831000000    -2.619000000
C     1.249000000     4.051000000    -2.061000000
C     1.901000000     4.014000000    -3.457000000
H     2.799000000     4.622000000    -3.583000000
H     1.144000000     4.517000000    -4.063000000
C     2.083000000     2.599000000    -3.861000000
C     3.261000000     1.920000000    -3.472000000
H     4.079000000     2.459000000    -3.001000000
C     1.019000000     1.861000000    -4.445000000
C     1.206000000     0.467000000    -4.532000000
H     0.371000000    -0.194000000    -4.749000000
C     2.313000000    -0.221000000    -4.021000000
O     2.290000000    -1.642000000    -3.931000000
C     2.206000000    -2.270000000    -2.666000000
C     1.200000000    -3.398000000    -2.717000000
C    -0.054000000    -3.306000000    -3.278000000
H    -0.389000000    -2.308000000    -3.549000000
C     1.469000000    -4.631000000    -2.063000000
H     2.416000000    -4.791000000    -1.555000000
O     3.525000000    -2.753000000    -2.311000000
H     1.885000000    -1.556000000    -1.893000000
C     3.327000000     0.529000000    -3.421000000
C     4.641000000    -0.076000000    -2.992000000
H     5.520000000     0.561000000    -3.107000000
H     4.781000000    -0.950000000    -3.631000000
C     4.621000000    -0.717000000    -1.585000000
C     4.092000000    -2.008000000    -1.334000000
C     3.993000000    -2.460000000    -0.014000000
H     3.497000000    -3.407000000     0.186000000
C     4.381000000    -1.616000000     1.015000000
O     4.021000000    -1.918000000     2.310000000
C     2.839000000    -1.373000000     2.861000000
H     2.363000000    -0.864000000     2.010000000
C     1.908000000    -2.518000000     3.402000000
C     0.839000000    -2.164000000     4.189000000
H     0.590000000    -1.131000000     4.422000000
C     2.059000000    -3.841000000     2.971000000
H     2.863000000    -4.100000000     2.286000000
C     1.071000000    -4.750000000     3.439000000
O     1.201000000    -6.094000000     3.143000000
C     0.085000000    -4.412000000     4.360000000
H    -0.653000000    -5.165000000     4.624000000
C    -0.096000000    -3.062000000     4.639000000
O    -1.270000000    -2.684000000     5.330000000
C    -1.481000000    -1.556000000     6.179000000
C    -2.470000000    -0.655000000     5.786000000
H    -3.071000000    -0.906000000     4.915000000
C    -0.475000000    -1.211000000     7.159000000
H     0.358000000    -1.891000000     7.314000000
C    -0.733000000    -0.099000000     7.977000000
H    -0.112000000     0.090000000     8.849000000
C    -1.857000000     0.732000000     7.617000000
H    -2.098000000     1.614000000     8.205000000
C    -2.590000000     0.573000000     6.456000000
O    -3.556000000     1.483000000     6.022000000
C    -3.311000000     2.213000000     4.906000000
C    -4.404000000     2.781000000     4.358000000
H    -5.338000000     2.567000000     4.871000000
C    -4.331000000     3.603000000     3.188000000
O    -5.467000000     4.044000000     2.576000000
C    -5.437000000     4.349000000     1.249000000
C    -5.509000000     3.313000000     0.351000000
H    -5.666000000     2.257000000     0.552000000
C    -5.301000000     5.654000000     0.826000000
H    -5.223000000     6.442000000     1.571000000
C    -5.419000000     5.947000000    -0.560000000
H    -5.357000000     6.965000000    -0.935000000
C    -5.575000000     4.899000000    -1.464000000
H    -5.770000000     5.099000000    -2.514000000
C    -5.614000000     3.601000000    -1.021000000
O    -5.819000000     2.696000000    -1.967000000
C    -4.817000000     2.266000000    -2.864000000
C    -5.192000000     1.290000000    -3.777000000
H    -6.209000000     0.912000000    -3.729000000
C    -4.234000000     0.733000000    -4.629000000
O    -4.697000000    -0.395000000    -5.239000000
C    -3.782000000    -1.347000000    -5.575000000
C    -3.389000000    -2.262000000    -4.628000000
H    -3.736000000    -2.165000000    -3.603000000
C    -3.285000000    -1.415000000    -6.871000000
H    -3.530000000    -0.669000000    -7.623000000
C    -2.373000000    -2.411000000    -7.197000000
H    -1.943000000    -2.517000000    -8.190000000
C    -2.031000000    -3.403000000    -6.234000000
H    -1.367000000    -4.207000000    -6.540000000
C    -2.488000000    -3.229000000    -4.968000000
O    -2.198000000    -4.115000000    -3.893000000
C    -0.937000000    -4.363000000    -3.405000000
C    -0.570000000    -5.583000000    -2.844000000
H    -1.279000000    -6.406000000    -2.843000000
C     0.589000000    -5.709000000    -2.081000000
O     1.016000000    -6.934000000    -1.634000000
C     1.675000000    -7.041000000    -0.422000000
C     2.767000000    -7.966000000    -0.225000000
H     3.278000000    -8.429000000    -1.065000000
C     3.336000000    -8.061000000     1.039000000
H     4.108000000    -8.786000000     1.285000000
C     2.709000000    -7.424000000     2.114000000
H     3.150000000    -7.566000000     3.097000000
C     1.696000000    -6.537000000     1.926000000
C     1.148000000    -6.368000000     0.668000000
H     0.210000000    -5.823000000     0.585000000
C    -1.191000000    -3.042000000     0.032000000
H    -0.987000000    -4.065000000     0.337000000
C    -0.221000000    -2.041000000     0.159000000
H     0.730000000    -2.340000000     0.592000000
C    -0.393000000    -0.704000000    -0.218000000
H     0.417000000     0.015000000    -0.198000000
C    -1.632000000    -0.349000000    -0.730000000
H    -1.748000000     0.698000000    -0.999000000
C    -2.607000000    -1.321000000    -0.931000000
H    -3.567000000    -0.958000000    -1.287000000
C    -2.423000000    -2.670000000    -0.538000000
C    -3.413000000    -3.706000000    -0.877000000
O    -4.473000000    -3.361000000    -1.430000000
O    -3.347000000    -4.807000000    -0.313000000
O    -5.354000000    -3.737000000     1.717000000
H    -4.976000000    -3.905000000     0.854000000
H    -5.724000000    -2.856000000     1.649000000
O    -8.323000000    -4.723000000     1.082000000
H    -8.556000000    -5.189000000     1.884000000
H    -8.810000000    -3.901000000     1.132000000
O    -2.313000000    -6.036000000     2.015000000
H    -2.836000000    -5.544000000     1.381000000
H    -1.950000000    -6.764000000     1.512000000
O    -7.558000000    -4.478000000    -1.818000000
H    -7.954000000    -4.068000000    -1.048000000
H    -6.788000000    -4.933000000    -1.477000000
O    -6.669000000    -4.814000000    -6.546000000
H    -7.064000000    -5.459000000    -5.959000000
H    -5.865000000    -4.545000000    -6.101000000
O    -7.392000000    -0.329000000     2.776000000
H    -6.469000000    -0.417000000     2.540000000
H    -7.832000000    -0.122000000     1.951000000
O    -5.615000000    -6.421000000    -0.963000000
H    -5.948000000    -6.719000000    -0.116000000
H    -4.876000000    -5.853000000    -0.744000000
O    -5.311000000    -6.288000000     1.960000000
H    -4.376000000    -6.250000000     2.161000000
H    -5.615000000    -5.386000000     2.062000000
O    -5.144000000    -0.457000000     1.085000000
H    -5.300000000    -0.504000000     0.142000000
H    -4.194000000    -0.378000000     1.167000000
O    -2.653000000    -7.416000000    -0.426000000
H    -3.535000000    -7.676000000    -0.692000000
H    -2.635000000    -6.467000000    -0.550000000
O    -5.702000000    -8.341000000    -3.265000000
H    -6.615000000    -8.621000000    -3.333000000
H    -5.712000000    -7.656000000    -2.596000000
O    -6.310000000    -1.282000000    -1.476000000
H    -6.733000000    -1.177000000    -2.327000000
H    -5.790000000    -2.081000000    -1.563000000
O    -5.380000000    -4.886000000    -3.739000000
H    -6.302000000    -4.814000000    -3.495000000
H    -4.902000000    -4.605000000    -2.959000000
O    -8.400000000    -0.346000000     0.109000000
H    -8.853000000    -1.171000000     0.285000000
H    -7.605000000    -0.605000000    -0.358000000
O    -2.232000000    -1.083000000     2.460000000
H    -1.830000000    -1.229000000     1.604000000
H    -1.649000000    -1.524000000     3.077000000
O    -5.119000000    -3.322000000     4.455000000
H    -5.186000000    -3.092000000     3.528000000
H    -4.604000000    -4.129000000     4.465000000
O    -3.324000000    -5.635000000     4.607000000
H    -3.752000000    -6.483000000     4.724000000
H    -2.775000000    -5.749000000     3.830000000
O    -3.414000000    -6.288000000    -5.820000000
H    -4.047000000    -6.855000000    -5.380000000
H    -3.536000000    -5.431000000    -5.412000000
O    -7.944000000    -7.732000000     1.547000000
H    -8.471000000    -7.329000000     2.236000000
H    -7.198000000    -7.141000000     1.439000000
