215
-1437.83140
C    -3.283000000     3.119000000     3.029000000
H    -3.431000000     3.562000000     2.047000000
C    -2.021000000     2.775000000     3.507000000
C    -1.990000000     2.068000000     4.672000000
H    -1.023000000     1.938000000     5.151000000
C    -0.792000000     3.071000000     2.706000000
O    -0.863000000     4.372000000     2.008000000
H    -0.779000000     2.216000000     2.014000000
O     0.421000000     3.058000000     3.527000000
C     1.647000000     2.614000000     3.076000000
C     2.008000000     1.418000000     3.638000000
H     1.330000000     0.931000000     4.333000000
C     3.252000000     0.856000000     3.288000000
O     3.449000000    -0.424000000     3.662000000
C     4.061000000     1.538000000     2.345000000
C     5.383000000     0.792000000     1.828000000
H     6.169000000     1.536000000     1.685000000
C     5.078000000    -0.109000000     0.681000000
C     5.014000000     0.522000000    -0.573000000
H     5.329000000     1.559000000    -0.658000000
H     5.842000000     0.229000000     2.643000000
C     3.649000000     2.763000000     1.796000000
H     4.234000000     3.313000000     1.063000000
C     2.449000000     3.294000000     2.153000000
C     1.947000000     4.658000000     1.655000000
H     2.865000000     5.208000000     1.439000000
H     1.412000000     5.257000000     2.395000000
C     1.083000000     4.518000000     0.488000000
C     1.532000000     4.432000000    -0.820000000
H     2.596000000     4.612000000    -0.949000000
C    -0.334000000     4.552000000     0.738000000
C    -1.237000000     4.407000000    -0.340000000
H    -2.298000000     4.337000000    -0.113000000
C    -0.716000000     4.304000000    -1.687000000
O    -1.509000000     3.901000000    -2.685000000
C    -1.448000000     2.584000000    -3.137000000
C    -2.830000000     1.953000000    -3.335000000
C    -3.052000000     1.149000000    -4.455000000
H    -2.274000000     1.146000000    -5.214000000
C    -3.772000000     2.136000000    -2.312000000
H    -3.609000000     2.713000000    -1.405000000
O    -0.606000000     2.484000000    -4.308000000
H    -0.957000000     2.036000000    -2.320000000
C     0.641000000     4.342000000    -1.918000000
C     1.298000000     4.299000000    -3.264000000
H     2.239000000     4.846000000    -3.172000000
H     0.620000000     4.691000000    -4.024000000
C     1.647000000     2.856000000    -3.640000000
C     2.889000000     2.339000000    -3.250000000
H     3.662000000     3.061000000    -2.999000000
C     0.718000000     2.055000000    -4.215000000
C     0.945000000     0.630000000    -4.412000000
H     0.206000000    -0.053000000    -4.823000000
C     2.182000000     0.117000000    -4.021000000
O     2.362000000    -1.220000000    -4.214000000
C     2.324000000    -2.074000000    -3.080000000
C     1.492000000    -3.316000000    -3.337000000
C     0.326000000    -3.239000000    -4.164000000
H     0.144000000    -2.254000000    -4.587000000
C     1.736000000    -4.558000000    -2.776000000
H     2.576000000    -4.595000000    -2.087000000
O     3.729000000    -2.245000000    -2.616000000
H     1.773000000    -1.629000000    -2.239000000
C     3.193000000     0.954000000    -3.429000000
C     4.541000000     0.422000000    -3.077000000
H     5.308000000     1.197000000    -3.028000000
H     4.850000000    -0.277000000    -3.857000000
C     4.622000000    -0.219000000    -1.675000000
C     4.148000000    -1.509000000    -1.502000000
C     4.189000000    -2.134000000    -0.240000000
H     3.749000000    -3.107000000    -0.037000000
C     4.637000000    -1.406000000     0.867000000
O     4.326000000    -1.951000000     2.063000000
C     3.156000000    -1.371000000     2.721000000
H     2.517000000    -0.956000000     1.928000000
C     2.145000000    -2.425000000     3.291000000
C     1.503000000    -2.179000000     4.510000000
H     1.790000000    -1.359000000     5.163000000
C     1.745000000    -3.462000000     2.517000000
H     2.089000000    -3.597000000     1.495000000
C     0.763000000    -4.347000000     3.008000000
O     0.405000000    -5.385000000     2.211000000
C     0.138000000    -4.143000000     4.215000000
H    -0.642000000    -4.814000000     4.567000000
C     0.517000000    -3.056000000     5.029000000
O     0.026000000    -2.929000000     6.326000000
C    -0.354000000    -1.703000000     6.919000000
C    -1.587000000    -1.076000000     6.557000000
H    -2.200000000    -1.569000000     5.807000000
C     0.408000000    -1.142000000     7.935000000
H     1.298000000    -1.603000000     8.356000000
C    -0.004000000     0.013000000     8.519000000
H     0.321000000     0.307000000     9.514000000
C    -1.096000000     0.770000000     7.981000000
H    -1.339000000     1.738000000     8.412000000
C    -1.846000000     0.263000000     6.961000000
O    -2.984000000     0.883000000     6.495000000
C    -3.127000000     1.643000000     5.363000000
C    -4.379000000     1.942000000     4.770000000
H    -5.247000000     1.673000000     5.367000000
C    -4.425000000     2.751000000     3.670000000
O    -5.658000000     3.148000000     3.180000000
C    -5.989000000     3.258000000     1.828000000
C    -5.875000000     2.264000000     0.874000000
H    -5.753000000     1.238000000     1.212000000
C    -6.212000000     4.607000000     1.386000000
H    -6.233000000     5.455000000     2.066000000
C    -6.404000000     4.786000000     0.016000000
H    -6.555000000     5.771000000    -0.419000000
C    -6.294000000     3.738000000    -0.926000000
H    -6.365000000     4.004000000    -1.977000000
C    -6.037000000     2.458000000    -0.505000000
O    -5.878000000     1.375000000    -1.369000000
C    -4.990000000     1.373000000    -2.385000000
C    -5.173000000     0.558000000    -3.469000000
H    -6.050000000    -0.080000000    -3.546000000
C    -4.260000000     0.498000000    -4.572000000
O    -4.489000000    -0.277000000    -5.660000000
C    -3.470000000    -1.162000000    -6.116000000
C    -2.999000000    -2.215000000    -5.310000000
H    -3.488000000    -2.496000000    -4.381000000
C    -2.868000000    -0.945000000    -7.321000000
H    -3.224000000    -0.146000000    -7.966000000
C    -1.818000000    -1.761000000    -7.742000000
H    -1.401000000    -1.613000000    -8.735000000
C    -1.294000000    -2.766000000    -6.909000000
H    -0.655000000    -3.532000000    -7.340000000
C    -1.948000000    -3.045000000    -5.729000000
O    -1.682000000    -4.198000000    -5.106000000
C    -0.516000000    -4.335000000    -4.356000000
C    -0.187000000    -5.562000000    -3.799000000
H    -0.716000000    -6.508000000    -3.875000000
C     0.961000000    -5.622000000    -2.990000000
O     1.255000000    -6.759000000    -2.291000000
C     1.667000000    -6.630000000    -0.971000000
C     2.995000000    -6.979000000    -0.633000000
H     3.760000000    -7.313000000    -1.330000000
C     3.420000000    -6.887000000     0.684000000
H     4.384000000    -7.335000000     0.912000000
C     2.580000000    -6.384000000     1.668000000
H     2.860000000    -6.326000000     2.717000000
C     1.311000000    -5.926000000     1.297000000
C     0.816000000    -6.149000000     0.042000000
H    -0.181000000    -5.807000000    -0.228000000
C    -1.388000000    -2.062000000     1.829000000
H    -1.617000000    -2.416000000     2.831000000
C    -0.810000000    -0.851000000     1.519000000
H    -0.665000000    -0.133000000     2.321000000
C    -0.361000000    -0.512000000     0.240000000
H     0.105000000     0.510000000    -0.173000000
C    -0.635000000    -1.406000000    -0.781000000
H    -0.310000000    -1.149000000    -1.786000000
C    -1.284000000    -2.582000000    -0.497000000
H    -1.499000000    -3.275000000    -1.307000000
C    -1.667000000    -2.901000000     0.854000000
C    -2.473000000    -4.133000000     1.167000000
O    -2.647000000    -4.972000000     0.352000000
O    -2.984000000    -4.299000000     2.251000000
O    -5.200000000    -4.789000000     3.740000000
H    -4.914000000    -4.462000000     4.592000000
H    -4.454000000    -4.632000000     3.160000000
O     0.207000000    -8.886000000     2.063000000
H     0.563000000    -8.368000000     1.342000000
H     0.843000000    -9.591000000     2.188000000
O    -4.560000000    -2.612000000     5.985000000
H    -4.961000000    -2.001000000     5.367000000
H    -4.700000000    -2.211000000     6.843000000
O    -2.461000000    -6.225000000     3.896000000
H    -2.305000000    -5.625000000     3.166000000
H    -2.903000000    -5.689000000     4.555000000
O    -3.641000000    -6.471000000    -4.176000000
H    -3.475000000    -7.411000000    -4.246000000
H    -3.228000000    -6.216000000    -3.351000000
O    -2.493000000    -8.844000000     2.728000000
H    -1.576000000    -9.110000000     2.655000000
H    -2.457000000    -7.957000000     3.085000000
O    -7.379000000    -3.146000000     3.828000000
H    -7.712000000    -3.250000000     4.720000000
H    -6.732000000    -3.844000000     3.731000000
O    -7.322000000    -5.336000000    -1.510000000
H    -7.297000000    -5.452000000    -0.561000000
H    -6.427000000    -5.089000000    -1.745000000
O    -6.208000000    -5.578000000     1.253000000
H    -5.508000000    -6.212000000     1.096000000
H    -6.206000000    -5.449000000     2.201000000
O    -7.217000000    -1.560000000    -1.302000000
H    -6.401000000    -1.216000000    -1.665000000
H    -6.969000000    -1.915000000    -0.449000000
O    -4.015000000    -7.111000000     1.074000000
H    -3.516000000    -6.321000000     0.868000000
H    -3.514000000    -7.536000000     1.770000000
O    -0.219000000    -7.628000000     4.555000000
H     0.010000000    -7.851000000     3.653000000
H    -1.088000000    -7.233000000     4.491000000
O    -4.723000000    -4.383000000    -1.724000000
H    -4.627000000    -3.433000000    -1.654000000
H    -4.101000000    -4.733000000    -1.087000000
O    -5.948000000    -9.146000000     0.075000000
H    -5.300000000    -8.526000000     0.408000000
H    -6.160000000    -8.824000000    -0.801000000
O    -6.364000000    -2.748000000     1.060000000
H    -6.113000000    -3.662000000     0.930000000
H    -6.692000000    -2.715000000     1.959000000
O    -2.692000000    -6.982000000    -1.699000000
H    -3.094000000    -7.506000000    -1.006000000
H    -2.559000000    -6.121000000    -1.303000000
O    -4.432000000    -1.799000000    -1.342000000
H    -3.483000000    -1.712000000    -1.252000000
H    -4.781000000    -1.485000000    -0.508000000
O    -2.818000000    -4.920000000     6.298000000
H    -3.278000000    -4.084000000     6.224000000
H    -2.240000000    -4.810000000     7.054000000
O    -7.434000000    -6.366000000     4.112000000
H    -7.417000000    -7.152000000     4.659000000
H    -6.532000000    -6.045000000     4.126000000
