215
-1476.36033
C    -2.771000000     3.002000000     3.535000000
H    -2.896000000     3.741000000     2.748000000
C    -1.527000000     2.488000000     3.902000000
C    -1.468000000     1.685000000     5.029000000
H    -0.494000000     1.393000000     5.412000000
C    -0.328000000     2.942000000     3.078000000
O    -0.585000000     4.169000000     2.345000000
H    -0.071000000     2.117000000     2.398000000
O     0.866000000     3.208000000     3.866000000
C     1.987000000     2.657000000     3.303000000
C     2.384000000     1.450000000     3.643000000
H     1.967000000     0.854000000     4.451000000
C     3.495000000     0.856000000     3.073000000
O     3.740000000    -0.508000000     3.310000000
C     4.271000000     1.517000000     2.151000000
C     5.388000000     0.871000000     1.392000000
H     6.176000000     1.581000000     1.134000000
C     4.940000000     0.105000000     0.144000000
C     4.951000000     0.708000000    -1.124000000
H     5.199000000     1.733000000    -1.389000000
H     5.900000000     0.198000000     2.083000000
C     3.916000000     2.844000000     1.802000000
H     4.481000000     3.374000000     1.040000000
C     2.694000000     3.348000000     2.271000000
C     2.225000000     4.655000000     1.732000000
H     3.052000000     5.231000000     1.313000000
H     1.756000000     5.288000000     2.488000000
C     1.176000000     4.479000000     0.688000000
C     1.545000000     4.631000000    -0.609000000
H     2.575000000     4.754000000    -0.936000000
C    -0.147000000     4.264000000     1.056000000
C    -1.105000000     4.218000000     0.069000000
H    -2.127000000     4.088000000     0.414000000
C    -0.795000000     4.229000000    -1.308000000
O    -1.763000000     3.911000000    -2.164000000
C    -1.726000000     2.583000000    -2.714000000
C    -3.131000000     2.045000000    -2.762000000
C    -3.465000000     1.160000000    -3.834000000
H    -2.797000000     0.915000000    -4.655000000
C    -4.020000000     2.246000000    -1.724000000
H    -3.688000000     2.877000000    -0.904000000
O    -1.053000000     2.569000000    -3.994000000
H    -1.173000000     1.867000000    -2.090000000
C     0.548000000     4.456000000    -1.647000000
C     0.976000000     4.492000000    -3.102000000
H     1.856000000     5.124000000    -3.236000000
H     0.257000000     4.989000000    -3.756000000
C     1.251000000     3.093000000    -3.636000000
C     2.550000000     2.595000000    -3.408000000
H     3.344000000     3.261000000    -3.080000000
C     0.247000000     2.223000000    -4.056000000
C     0.523000000     0.940000000    -4.303000000
H    -0.183000000     0.207000000    -4.684000000
C     1.848000000     0.477000000    -4.243000000
O     2.076000000    -0.882000000    -4.531000000
C     2.018000000    -1.660000000    -3.349000000
C     1.026000000    -2.749000000    -3.522000000
C     0.107000000    -2.766000000    -4.564000000
H     0.095000000    -2.012000000    -5.348000000
C     1.064000000    -3.834000000    -2.622000000
H     1.777000000    -3.794000000    -1.803000000
O     3.337000000    -2.092000000    -3.032000000
H     1.664000000    -1.021000000    -2.527000000
C     2.893000000     1.243000000    -3.759000000
C     4.295000000     0.704000000    -3.583000000
H     5.132000000     1.400000000    -3.669000000
H     4.484000000    -0.110000000    -4.287000000
C     4.353000000    -0.016000000    -2.211000000
C     4.020000000    -1.420000000    -2.063000000
C     4.170000000    -2.013000000    -0.816000000
H     3.969000000    -3.080000000    -0.764000000
C     4.429000000    -1.197000000     0.264000000
O     4.377000000    -1.836000000     1.490000000
C     3.313000000    -1.535000000     2.366000000
H     2.500000000    -1.052000000     1.804000000
C     2.643000000    -2.755000000     3.019000000
C     1.790000000    -2.541000000     4.133000000
H     1.715000000    -1.581000000     4.637000000
C     2.688000000    -4.037000000     2.426000000
H     3.346000000    -4.186000000     1.574000000
C     1.906000000    -5.054000000     2.991000000
O     1.994000000    -6.342000000     2.441000000
C     1.272000000    -4.889000000     4.227000000
H     0.757000000    -5.722000000     4.699000000
C     1.228000000    -3.640000000     4.791000000
O     0.339000000    -3.464000000     5.863000000
C     0.045000000    -2.232000000     6.542000000
C    -1.059000000    -1.438000000     6.188000000
H    -1.736000000    -1.694000000     5.377000000
C     0.677000000    -2.035000000     7.710000000
H     1.502000000    -2.703000000     7.943000000
C     0.492000000    -0.937000000     8.486000000
H     1.124000000    -0.891000000     9.369000000
C    -0.669000000    -0.142000000     8.195000000
H    -0.865000000     0.739000000     8.800000000
C    -1.432000000    -0.412000000     7.068000000
O    -2.536000000     0.347000000     6.749000000
C    -2.588000000     1.268000000     5.699000000
C    -3.878000000     1.614000000     5.186000000
H    -4.792000000     1.175000000     5.578000000
C    -3.930000000     2.428000000     4.046000000
O    -5.127000000     2.689000000     3.485000000
C    -5.473000000     3.238000000     2.239000000
C    -5.919000000     2.405000000     1.212000000
H    -5.951000000     1.331000000     1.380000000
C    -5.546000000     4.636000000     2.194000000
H    -5.292000000     5.304000000     3.013000000
C    -5.831000000     5.217000000     0.932000000
H    -5.905000000     6.290000000     0.774000000
C    -6.200000000     4.388000000    -0.123000000
H    -6.618000000     4.762000000    -1.054000000
C    -6.198000000     2.982000000     0.003000000
O    -6.314000000     2.155000000    -1.047000000
C    -5.296000000     1.786000000    -1.865000000
C    -5.682000000     1.026000000    -2.976000000
H    -6.696000000     0.637000000    -2.967000000
C    -4.723000000     0.551000000    -3.862000000
O    -5.034000000    -0.425000000    -4.834000000
C    -4.114000000    -1.050000000    -5.644000000
C    -3.298000000    -2.119000000    -5.231000000
H    -3.369000000    -2.592000000    -4.255000000
C    -4.053000000    -0.719000000    -6.986000000
H    -4.799000000    -0.006000000    -7.327000000
C    -3.123000000    -1.249000000    -7.905000000
H    -3.093000000    -0.885000000    -8.929000000
C    -2.339000000    -2.369000000    -7.480000000
H    -1.675000000    -2.892000000    -8.162000000
C    -2.426000000    -2.792000000    -6.171000000
O    -1.675000000    -3.905000000    -5.709000000
C    -0.769000000    -3.833000000    -4.741000000
C    -0.756000000    -4.851000000    -3.821000000
H    -1.479000000    -5.660000000    -3.875000000
C     0.194000000    -4.929000000    -2.818000000
O     0.041000000    -5.854000000    -1.810000000
C     1.113000000    -6.207000000    -1.042000000
C     2.133000000    -6.947000000    -1.637000000
H     2.152000000    -7.092000000    -2.714000000
C     3.118000000    -7.544000000    -0.767000000
H     3.975000000    -7.997000000    -1.259000000
C     3.082000000    -7.252000000     0.589000000
H     3.915000000    -7.417000000     1.268000000
C     2.023000000    -6.539000000     1.112000000
C     1.027000000    -6.068000000     0.314000000
H     0.159000000    -5.606000000     0.777000000
C    -0.597000000    -2.253000000     1.780000000
H    -0.528000000    -2.675000000     2.779000000
C    -0.073000000    -0.972000000     1.583000000
H     0.305000000    -0.448000000     2.456000000
C    -0.051000000    -0.454000000     0.307000000
H     0.367000000     0.511000000     0.262000000
C    -0.643000000    -1.146000000    -0.754000000
H    -0.646000000    -0.815000000    -1.790000000
C    -1.353000000    -2.362000000    -0.499000000
H    -1.815000000    -2.865000000    -1.344000000
C    -1.240000000    -2.964000000     0.763000000
C    -1.982000000    -4.189000000     1.126000000
O    -2.573000000    -4.906000000     0.277000000
O    -1.937000000    -4.567000000     2.251000000
O    -2.840000000    -3.613000000     4.542000000
H    -2.548000000    -4.131000000     5.292000000
H    -2.461000000    -4.054000000     3.783000000
O    -1.235000000    -9.488000000     1.648000000
H    -1.381000000    -8.745000000     1.063000000
H    -0.322000000    -9.403000000     1.921000000
O    -2.036000000    -6.672000000     3.803000000
H    -2.017000000    -6.005000000     3.118000000
H    -2.090000000    -6.176000000     4.620000000
O    -3.944000000    -7.020000000    -3.804000000
H    -4.372000000    -7.756000000    -3.366000000
H    -3.720000000    -6.417000000    -3.095000000
O    -3.745000000    -8.344000000     2.630000000
H    -2.988000000    -8.888000000     2.412000000
H    -3.376000000    -7.476000000     2.793000000
O    -6.211000000    -7.597000000     2.023000000
H    -6.166000000    -6.642000000     1.975000000
H    -5.370000000    -7.858000000     2.398000000
O    -6.026000000    -6.368000000    -1.135000000
H    -6.350000000    -6.073000000    -0.284000000
H    -5.170000000    -5.949000000    -1.224000000
O    -7.449000000    -3.192000000    -0.514000000
H    -7.320000000    -3.806000000    -1.237000000
H    -6.956000000    -2.413000000    -0.771000000
O    -5.072000000    -4.914000000     1.283000000
H    -4.138000000    -4.946000000     1.078000000
H    -5.107000000    -4.911000000     2.239000000
O    -1.280000000    -9.097000000     4.993000000
H    -0.568000000    -9.633000000     4.644000000
H    -1.430000000    -8.431000000     4.322000000
O    -3.648000000    -4.828000000    -2.191000000
H    -4.150000000    -4.036000000    -2.383000000
H    -3.153000000    -4.612000000    -1.401000000
O    -4.292000000    -9.867000000     0.039000000
H    -4.265000000    -9.212000000     0.736000000
H    -4.777000000    -9.444000000    -0.669000000
O    -6.196000000    -1.096000000     4.004000000
H    -5.276000000    -1.317000000     3.860000000
H    -6.665000000    -1.559000000     3.309000000
O    -4.938000000    -2.378000000     0.577000000
H    -5.419000000    -3.188000000     0.749000000
H    -4.439000000    -2.221000000     1.379000000
O    -1.911000000    -7.388000000     0.018000000
H    -1.408000000    -7.320000000    -0.794000000
H    -2.116000000    -6.483000000     0.250000000
O    -5.129000000    -2.408000000    -2.226000000
H    -4.753000000    -1.544000000    -2.397000000
H    -5.105000000    -2.496000000    -1.273000000
O    -2.107000000    -5.259000000     6.416000000
H    -1.205000000    -5.469000000     6.660000000
H    -2.579000000    -5.228000000     7.248000000
O    -3.396000000    -1.443000000     3.109000000
H    -2.740000000    -1.279000000     2.432000000
H    -2.992000000    -2.094000000     3.683000000
O    -5.040000000    -5.238000000     4.008000000
H    -5.492000000    -5.574000000     4.783000000
H    -4.510000000    -4.512000000     4.336000000
