215
-1458.17982
C    -3.018000000     2.261000000     2.857000000
H    -3.152000000     2.560000000     1.820000000
C    -1.831000000     2.584000000     3.460000000
C    -1.588000000     2.001000000     4.770000000
H    -0.620000000     2.209000000     5.218000000
C    -0.710000000     3.348000000     2.698000000
O    -1.246000000     4.455000000     1.988000000
H    -0.311000000     2.665000000     1.934000000
O     0.445000000     3.715000000     3.400000000
C     1.693000000     3.316000000     2.860000000
C     2.198000000     2.092000000     3.261000000
H     1.728000000     1.492000000     4.036000000
C     3.343000000     1.606000000     2.600000000
O     3.776000000     0.419000000     3.052000000
C     3.955000000     2.306000000     1.556000000
C     5.217000000     1.855000000     0.824000000
H     5.768000000     2.704000000     0.416000000
C     4.797000000     0.834000000    -0.177000000
C     4.711000000     1.223000000    -1.562000000
H     4.930000000     2.249000000    -1.845000000
H     5.963000000     1.316000000     1.411000000
C     3.403000000     3.554000000     1.189000000
H     3.677000000     3.996000000     0.234000000
C     2.271000000     4.053000000     1.777000000
C     1.659000000     5.332000000     1.326000000
H     2.379000000     6.039000000     0.908000000
H     1.246000000     5.831000000     2.204000000
C     0.554000000     4.974000000     0.274000000
C     0.947000000     4.813000000    -1.037000000
H     2.016000000     4.874000000    -1.228000000
C    -0.769000000     4.601000000     0.722000000
C    -1.773000000     4.139000000    -0.219000000
H    -2.800000000     3.847000000    -0.015000000
C    -1.336000000     3.941000000    -1.522000000
O    -2.267000000     3.419000000    -2.388000000
C    -2.154000000     2.124000000    -2.976000000
C    -3.530000000     1.458000000    -3.030000000
C    -3.772000000     0.339000000    -3.896000000
H    -3.035000000     0.142000000    -4.671000000
C    -4.535000000     1.792000000    -2.164000000
H    -4.379000000     2.596000000    -1.448000000
O    -1.538000000     2.162000000    -4.255000000
H    -1.572000000     1.532000000    -2.254000000
C     0.007000000     4.234000000    -1.957000000
C     0.405000000     4.221000000    -3.413000000
H     1.227000000     4.915000000    -3.603000000
H    -0.429000000     4.465000000    -4.075000000
C     0.815000000     2.825000000    -3.822000000
C     2.120000000     2.424000000    -3.751000000
H     2.864000000     3.149000000    -3.433000000
C    -0.181000000     1.874000000    -4.268000000
C     0.147000000     0.565000000    -4.552000000
H    -0.587000000    -0.221000000    -4.710000000
C     1.504000000     0.209000000    -4.423000000
O     1.797000000    -1.121000000    -4.530000000
C     1.990000000    -1.724000000    -3.249000000
C     1.264000000    -3.054000000    -3.162000000
C     0.124000000    -3.250000000    -3.782000000
H    -0.275000000    -2.480000000    -4.436000000
C     1.763000000    -4.114000000    -2.370000000
H     2.699000000    -3.952000000    -1.842000000
O     3.414000000    -1.805000000    -2.983000000
H     1.535000000    -1.064000000    -2.496000000
C     2.562000000     1.154000000    -4.148000000
C     3.998000000     0.771000000    -3.966000000
H     4.712000000     1.584000000    -4.115000000
H     4.286000000    -0.103000000    -4.553000000
C     4.240000000     0.389000000    -2.497000000
C     3.982000000    -0.953000000    -2.109000000
C     4.157000000    -1.425000000    -0.805000000
H     4.033000000    -2.490000000    -0.626000000
C     4.662000000    -0.510000000     0.160000000
O     4.671000000    -1.058000000     1.423000000
C     3.501000000    -0.741000000     2.316000000
H     2.704000000    -0.609000000     1.569000000
C     3.068000000    -1.854000000     3.245000000
C     2.440000000    -1.633000000     4.493000000
H     2.365000000    -0.640000000     4.929000000
C     3.084000000    -3.115000000     2.641000000
H     3.482000000    -3.204000000     1.633000000
C     2.585000000    -4.224000000     3.332000000
O     2.479000000    -5.488000000     2.822000000
C     2.109000000    -4.055000000     4.594000000
H     1.603000000    -4.931000000     4.993000000
C     2.030000000    -2.766000000     5.204000000
O     1.383000000    -2.624000000     6.400000000
C     0.764000000    -1.467000000     6.825000000
C    -0.444000000    -0.989000000     6.346000000
H    -0.953000000    -1.529000000     5.552000000
C     1.286000000    -0.893000000     8.030000000
H     2.091000000    -1.328000000     8.616000000
C     0.650000000     0.206000000     8.654000000
H     0.959000000     0.675000000     9.585000000
C    -0.551000000     0.685000000     8.130000000
H    -1.109000000     1.452000000     8.661000000
C    -1.052000000     0.106000000     6.945000000
O    -2.267000000     0.462000000     6.551000000
C    -2.523000000     1.121000000     5.344000000
C    -3.775000000     0.892000000     4.739000000
H    -4.590000000     0.315000000     5.169000000
C    -3.976000000     1.479000000     3.432000000
O    -5.199000000     1.234000000     2.864000000
C    -5.771000000     2.020000000     1.920000000
C    -5.935000000     1.440000000     0.645000000
H    -5.448000000     0.481000000     0.488000000
C    -6.342000000     3.257000000     2.262000000
H    -6.361000000     3.663000000     3.271000000
C    -7.044000000     4.007000000     1.265000000
H    -7.397000000     5.019000000     1.446000000
C    -7.136000000     3.478000000     0.037000000
H    -7.639000000     4.050000000    -0.739000000
C    -6.539000000     2.214000000    -0.310000000
O    -6.773000000     1.611000000    -1.522000000
C    -5.720000000     1.198000000    -2.298000000
C    -6.000000000     0.139000000    -3.132000000
H    -6.955000000    -0.340000000    -3.329000000
C    -4.987000000    -0.315000000    -3.936000000
O    -5.236000000    -1.387000000    -4.782000000
C    -4.285000000    -2.123000000    -5.383000000
C    -3.545000000    -2.989000000    -4.571000000
H    -3.910000000    -3.426000000    -3.646000000
C    -3.750000000    -1.797000000    -6.613000000
H    -4.304000000    -1.083000000    -7.217000000
C    -2.626000000    -2.423000000    -7.095000000
H    -2.252000000    -2.197000000    -8.091000000
C    -1.858000000    -3.300000000    -6.325000000
H    -0.916000000    -3.664000000    -6.726000000
C    -2.397000000    -3.638000000    -5.058000000
O    -1.831000000    -4.578000000    -4.275000000
C    -0.636000000    -4.415000000    -3.640000000
C    -0.227000000    -5.449000000    -2.907000000
H    -0.859000000    -6.331000000    -2.837000000
C     1.036000000    -5.313000000    -2.296000000
O     1.566000000    -6.372000000    -1.668000000
C     2.475000000    -6.320000000    -0.675000000
C     3.707000000    -6.861000000    -0.867000000
H     4.018000000    -7.324000000    -1.800000000
C     4.614000000    -6.837000000     0.178000000
H     5.621000000    -7.242000000     0.126000000
C     4.238000000    -6.323000000     1.439000000
H     4.930000000    -6.323000000     2.277000000
C     2.928000000    -5.794000000     1.576000000
C     2.050000000    -5.791000000     0.518000000
H     1.047000000    -5.403000000     0.674000000
C    -0.256000000    -1.775000000     2.109000000
H    -0.454000000    -1.988000000     3.157000000
C     0.073000000    -0.462000000     1.657000000
H     0.262000000     0.366000000     2.336000000
C     0.075000000    -0.241000000     0.270000000
H     0.211000000     0.792000000    -0.166000000
C    -0.203000000    -1.299000000    -0.598000000
H    -0.156000000    -1.106000000    -1.666000000
C    -0.605000000    -2.559000000    -0.179000000
H    -0.793000000    -3.354000000    -0.896000000
C    -0.696000000    -2.771000000     1.230000000
C    -1.139000000    -4.087000000     1.772000000
O    -1.378000000    -4.963000000     0.968000000
O    -1.417000000    -4.268000000     2.937000000
O    -3.422000000    -1.845000000     1.148000000
H    -3.333000000    -2.772000000     1.368000000
H    -2.560000000    -1.471000000     1.335000000
O    -0.637000000    -5.928000000     6.803000000
H    -0.018000000    -5.361000000     7.262000000
H    -1.205000000    -5.325000000     6.325000000
O    -3.509000000    -6.652000000     4.903000000
H    -3.932000000    -7.493000000     4.732000000
H    -2.711000000    -6.878000000     5.382000000
O    -0.343000000    -6.418000000     4.238000000
H    -0.462000000    -5.570000000     3.810000000
H    -0.420000000    -6.227000000     5.173000000
O    -5.093000000    -8.982000000    -0.514000000
H    -4.548000000    -8.621000000     0.185000000
H    -5.929000000    -8.524000000    -0.427000000
O    -4.698000000    -7.461000000    -2.883000000
H    -4.747000000    -8.314000000    -2.452000000
H    -4.217000000    -6.908000000    -2.267000000
O     1.721000000    -8.454000000     3.970000000
H     2.438000000    -8.327000000     4.591000000
H     1.267000000    -7.612000000     3.952000000
O    -6.106000000    -4.012000000     4.190000000
H    -6.174000000    -3.325000000     3.526000000
H    -5.423000000    -4.596000000     3.860000000
O    -6.602000000    -4.814000000     0.688000000
H    -7.208000000    -4.262000000     1.182000000
H    -5.868000000    -4.958000000     1.285000000
O    -1.568000000    -7.815000000    -0.952000000
H    -1.493000000    -8.050000000    -0.027000000
H    -2.183000000    -7.082000000    -0.964000000
O    -2.228000000    -9.849000000     1.392000000
H    -3.091000000    -9.687000000     1.774000000
H    -1.698000000    -9.102000000     1.671000000
O    -4.218000000    -5.204000000     2.485000000
H    -4.299000000    -6.056000000     2.914000000
H    -3.300000000    -5.154000000     2.222000000
O    -3.313000000    -5.637000000    -0.989000000
H    -4.083000000    -5.173000000    -0.659000000
H    -2.624000000    -5.438000000    -0.355000000
O    -6.589000000    -1.388000000     3.246000000
H    -7.123000000    -0.673000000     2.901000000
H    -5.692000000    -1.155000000     3.005000000
O    -1.056000000    -7.452000000     1.838000000
H    -1.243000000    -6.532000000     1.651000000
H    -0.569000000    -7.436000000     2.662000000
O    -6.183000000    -4.042000000    -2.019000000
H    -5.547000000    -3.398000000    -1.708000000
H    -6.699000000    -4.263000000    -1.243000000
O    -2.144000000    -4.317000000     5.432000000
H    -2.839000000    -4.967000000     5.329000000
H    -1.955000000    -4.025000000     4.540000000
O    -2.187000000    -3.147000000     8.082000000
H    -3.110000000    -2.894000000     8.096000000
H    -2.050000000    -3.503000000     7.204000000
O    -4.167000000    -2.432000000    -1.288000000
H    -3.420000000    -2.194000000    -1.836000000
H    -3.877000000    -2.249000000    -0.395000000
