215
-1461.02766
C    -3.493000000     1.688000000     2.498000000
H    -3.281000000     2.274000000     1.608000000
C    -2.496000000     1.709000000     3.501000000
C    -2.673000000     0.977000000     4.699000000
H    -1.945000000     0.950000000     5.507000000
C    -1.178000000     2.416000000     3.112000000
O    -1.460000000     3.747000000     2.532000000
H    -0.616000000     1.808000000     2.388000000
O    -0.361000000     2.440000000     4.254000000
C     1.032000000     2.228000000     4.146000000
C     1.501000000     0.952000000     4.497000000
H     0.781000000     0.402000000     5.098000000
C     2.724000000     0.503000000     4.120000000
O     3.091000000    -0.760000000     4.314000000
C     3.528000000     1.323000000     3.328000000
C     4.837000000     0.731000000     2.772000000
H     5.559000000     1.541000000     2.649000000
C     4.573000000    -0.020000000     1.445000000
C     4.871000000     0.698000000     0.277000000
H     5.198000000     1.729000000     0.384000000
H     5.295000000     0.040000000     3.483000000
C     3.094000000     2.622000000     3.025000000
H     3.662000000     3.223000000     2.319000000
C     1.818000000     3.089000000     3.378000000
C     1.368000000     4.514000000     2.883000000
H     2.279000000     5.115000000     2.850000000
H     0.665000000     4.955000000     3.593000000
C     0.688000000     4.461000000     1.582000000
C     1.389000000     4.794000000     0.381000000
H     2.405000000     5.170000000     0.464000000
C    -0.675000000     4.073000000     1.463000000
C    -1.269000000     4.051000000     0.211000000
H    -2.334000000     3.838000000     0.171000000
C    -0.524000000     4.381000000    -0.935000000
O    -1.249000000     4.137000000    -2.118000000
C    -0.942000000     2.967000000    -2.918000000
C    -2.085000000     2.252000000    -3.598000000
C    -2.053000000     1.658000000    -4.890000000
H    -1.133000000     1.691000000    -5.470000000
C    -3.354000000     2.270000000    -2.947000000
H    -3.364000000     2.708000000    -1.952000000
O     0.069000000     3.318000000    -3.869000000
H    -0.577000000     2.234000000    -2.184000000
C     0.817000000     4.663000000    -0.863000000
C     1.742000000     4.920000000    -2.078000000
H     2.611000000     5.497000000    -1.754000000
H     1.306000000     5.476000000    -2.911000000
C     2.135000000     3.539000000    -2.637000000
C     3.349000000     3.068000000    -2.235000000
H     4.024000000     3.595000000    -1.565000000
C     1.363000000     2.876000000    -3.601000000
C     1.800000000     1.679000000    -4.149000000
H     1.124000000     1.069000000    -4.743000000
C     3.009000000     1.169000000    -3.751000000
O     3.268000000    -0.227000000    -4.037000000
C     2.839000000    -1.095000000    -3.027000000
C     1.918000000    -2.191000000    -3.671000000
C     1.411000000    -2.140000000    -5.010000000
H     1.532000000    -1.231000000    -5.593000000
C     1.535000000    -3.188000000    -2.756000000
H     1.895000000    -3.138000000    -1.732000000
O     3.941000000    -1.713000000    -2.355000000
H     2.192000000    -0.639000000    -2.263000000
C     3.714000000     1.806000000    -2.704000000
C     4.963000000     1.113000000    -2.200000000
H     5.820000000     1.722000000    -1.907000000
H     5.386000000     0.497000000    -2.996000000
C     4.664000000     0.202000000    -0.981000000
C     4.184000000    -1.124000000    -1.115000000
C     3.922000000    -1.891000000     0.069000000
H     3.562000000    -2.907000000    -0.066000000
C     4.056000000    -1.314000000     1.337000000
O     3.866000000    -2.043000000     2.487000000
C     2.663000000    -1.685000000     3.233000000
H     2.026000000    -1.037000000     2.612000000
C     1.813000000    -2.902000000     3.744000000
C     1.252000000    -2.964000000     5.026000000
H     1.393000000    -2.091000000     5.657000000
C     1.580000000    -3.950000000     2.840000000
H     1.949000000    -3.864000000     1.821000000
C     0.716000000    -4.974000000     3.165000000
O     0.467000000    -6.018000000     2.325000000
C     0.226000000    -5.032000000     4.498000000
H    -0.440000000    -5.832000000     4.812000000
C     0.336000000    -3.970000000     5.369000000
O    -0.327000000    -3.914000000     6.555000000
C    -1.135000000    -2.820000000     6.994000000
C    -2.136000000    -2.167000000     6.244000000
H    -2.430000000    -2.612000000     5.297000000
C    -0.825000000    -2.255000000     8.219000000
H     0.042000000    -2.705000000     8.696000000
C    -1.610000000    -1.276000000     8.857000000
H    -1.371000000    -0.890000000     9.845000000
C    -2.667000000    -0.729000000     8.157000000
H    -3.249000000     0.056000000     8.631000000
C    -2.867000000    -1.135000000     6.781000000
O    -3.884000000    -0.597000000     6.002000000
C    -3.717000000     0.086000000     4.793000000
C    -4.664000000    -0.018000000     3.762000000
H    -5.454000000    -0.764000000     3.774000000
C    -4.627000000     0.852000000     2.661000000
O    -5.634000000     0.747000000     1.644000000
C    -5.834000000     1.635000000     0.638000000
C    -5.762000000     1.173000000    -0.660000000
H    -5.616000000     0.113000000    -0.848000000
C    -6.091000000     2.936000000     1.003000000
H    -6.228000000     3.154000000     2.059000000
C    -6.071000000     3.939000000     0.022000000
H    -6.186000000     4.996000000     0.249000000
C    -5.935000000     3.524000000    -1.303000000
H    -5.954000000     4.255000000    -2.107000000
C    -5.819000000     2.166000000    -1.617000000
O    -5.723000000     1.764000000    -2.901000000
C    -4.473000000     1.636000000    -3.476000000
C    -4.479000000     1.096000000    -4.736000000
H    -5.317000000     0.626000000    -5.244000000
C    -3.272000000     1.128000000    -5.442000000
O    -3.258000000     0.569000000    -6.732000000
C    -2.152000000    -0.083000000    -7.188000000
C    -1.604000000    -1.222000000    -6.589000000
H    -2.032000000    -1.566000000    -5.650000000
C    -1.668000000     0.423000000    -8.391000000
H    -2.166000000     1.236000000    -8.912000000
C    -0.560000000    -0.167000000    -8.994000000
H    -0.226000000     0.167000000    -9.972000000
C    -0.002000000    -1.345000000    -8.377000000
H     0.904000000    -1.705000000    -8.858000000
C    -0.581000000    -1.935000000    -7.218000000
O    -0.140000000    -3.100000000    -6.688000000
C     0.554000000    -3.121000000    -5.481000000
C     0.142000000    -4.076000000    -4.554000000
H    -0.513000000    -4.877000000    -4.886000000
C     0.548000000    -4.090000000    -3.181000000
O     0.009000000    -5.132000000    -2.376000000
C     0.752000000    -5.694000000    -1.351000000
C     2.049000000    -6.279000000    -1.480000000
H     2.416000000    -6.345000000    -2.501000000
C     2.763000000    -6.766000000    -0.391000000
H     3.739000000    -7.187000000    -0.622000000
C     2.075000000    -6.738000000     0.787000000
H     2.644000000    -6.935000000     1.692000000
C     0.896000000    -6.091000000     0.983000000
C     0.193000000    -5.571000000    -0.098000000
H    -0.727000000    -5.050000000     0.152000000
C    -1.582000000    -1.800000000     1.290000000
H    -2.103000000    -2.115000000     2.191000000
C    -0.447000000    -0.950000000     1.381000000
H    -0.042000000    -0.617000000     2.333000000
C     0.138000000    -0.406000000     0.246000000
H     0.988000000     0.289000000     0.334000000
C    -0.377000000    -0.743000000    -1.022000000
H     0.078000000    -0.446000000    -1.964000000
C    -1.497000000    -1.625000000    -1.076000000
H    -1.964000000    -1.738000000    -2.051000000
C    -2.043000000    -2.192000000     0.061000000
C    -3.146000000    -3.131000000    -0.100000000
O    -3.749000000    -3.221000000    -1.164000000
O    -3.689000000    -3.522000000     0.932000000
O    -5.953000000    -3.732000000     2.407000000
H    -5.215000000    -3.619000000     1.809000000
H    -5.555000000    -4.034000000     3.224000000
O    -6.727000000    -2.025000000    -4.693000000
H    -6.632000000    -2.977000000    -4.724000000
H    -7.172000000    -1.855000000    -3.863000000
O    -3.239000000    -5.150000000    -6.078000000
H    -3.273000000    -4.209000000    -5.906000000
H    -2.627000000    -5.237000000    -6.809000000
O    -6.259000000    -2.764000000    -0.390000000
H    -5.327000000    -2.910000000    -0.549000000
H    -6.342000000    -2.762000000     0.563000000
O    -6.095000000    -4.566000000    -4.447000000
H    -5.140000000    -4.542000000    -4.380000000
H    -6.351000000    -5.345000000    -3.952000000
O    -8.641000000    -3.796000000     2.800000000
H    -7.703000000    -3.983000000     2.775000000
H    -8.819000000    -3.352000000     1.971000000
O    -6.796000000    -6.920000000    -3.548000000
H    -7.416000000    -7.603000000    -3.805000000
H    -6.146000000    -7.376000000    -3.012000000
O    -7.057000000    -6.667000000     1.093000000
H    -6.808000000    -7.321000000     0.439000000
H    -6.697000000    -5.846000000     0.758000000
O    -9.130000000    -3.611000000     0.054000000
H    -9.645000000    -3.722000000    -0.745000000
H    -8.220000000    -3.649000000    -0.240000000
O    -2.514000000    -7.502000000     1.074000000
H    -2.205000000    -8.339000000     1.420000000
H    -2.245000000    -7.509000000     0.156000000
O    -4.562000000    -6.073000000    -0.225000000
H    -4.062000000    -6.336000000     0.548000000
H    -4.257000000    -5.186000000    -0.416000000
O    -5.615000000    -3.279000000     5.215000000
H    -5.465000000    -2.805000000     6.033000000
H    -6.388000000    -2.862000000     4.835000000
O    -5.270000000    -8.332000000    -1.999000000
H    -4.513000000    -8.872000000    -2.227000000
H    -4.929000000    -7.695000000    -1.371000000
O    -3.267000000    -5.561000000    -3.376000000
H    -3.037000000    -5.804000000    -4.273000000
H    -3.357000000    -4.609000000    -3.401000000
O    -3.859000000    -2.808000000    -4.275000000
H    -4.800000000    -2.668000000    -4.377000000
H    -3.652000000    -2.428000000    -3.421000000
O    -7.603000000    -1.347000000    -2.316000000
H    -8.162000000    -0.763000000    -1.803000000
H    -6.999000000    -1.724000000    -1.676000000
O    -2.889000000    -5.317000000     2.863000000
H    -3.087000000    -4.758000000     2.111000000
H    -2.690000000    -6.171000000     2.480000000
O    -3.798000000    -4.887000000     5.730000000
H    -4.475000000    -4.413000000     5.248000000
H    -3.358000000    -5.418000000     5.066000000
O    -1.425000000    -7.996000000    -1.517000000
H    -1.975000000    -7.406000000    -2.033000000
H    -1.799000000    -8.864000000    -1.666000000
