215
-1454.93881
C    -2.997000000     2.505000000     1.769000000
H    -2.702000000     2.716000000     0.744000000
C    -2.085000000     2.487000000     2.848000000
C    -2.553000000     2.123000000     4.106000000
H    -1.930000000     2.027000000     4.992000000
C    -0.663000000     2.997000000     2.611000000
O    -0.580000000     4.277000000     2.001000000
H    -0.081000000     2.339000000     1.948000000
O    -0.035000000     3.033000000     3.835000000
C     1.200000000     2.406000000     3.839000000
C     1.252000000     1.092000000     4.321000000
H     0.334000000     0.677000000     4.727000000
C     2.369000000     0.293000000     3.964000000
O     2.326000000    -1.065000000     4.296000000
C     3.495000000     0.876000000     3.361000000
C     4.678000000    -0.032000000     2.953000000
H     5.605000000     0.543000000     2.999000000
C     4.473000000    -0.825000000     1.665000000
C     4.898000000    -0.225000000     0.453000000
H     5.253000000     0.800000000     0.389000000
H     4.826000000    -0.720000000     3.788000000
C     3.464000000     2.209000000     3.002000000
H     4.252000000     2.544000000     2.333000000
C     2.317000000     2.998000000     3.264000000
C     2.305000000     4.400000000     2.609000000
H     3.326000000     4.760000000     2.464000000
H     1.882000000     5.138000000     3.294000000
C     1.625000000     4.424000000     1.234000000
C     2.536000000     4.535000000     0.142000000
H     3.595000000     4.357000000     0.310000000
C     0.263000000     4.434000000     0.974000000
C    -0.249000000     4.586000000    -0.261000000
H    -1.327000000     4.567000000    -0.400000000
C     0.598000000     4.708000000    -1.362000000
O     0.132000000     4.700000000    -2.601000000
C    -0.027000000     3.361000000    -3.110000000
C    -1.410000000     3.091000000    -3.713000000
C    -1.411000000     1.925000000    -4.534000000
H    -0.524000000     1.324000000    -4.717000000
C    -2.624000000     3.737000000    -3.444000000
H    -2.550000000     4.643000000    -2.848000000
O     1.078000000     3.177000000    -4.059000000
H     0.069000000     2.694000000    -2.240000000
C     2.008000000     4.641000000    -1.152000000
C     2.966000000     4.441000000    -2.356000000
H     3.943000000     4.828000000    -2.061000000
H     2.715000000     4.994000000    -3.264000000
C     3.025000000     2.996000000    -2.718000000
C     4.000000000     2.137000000    -2.176000000
H     4.664000000     2.509000000    -1.400000000
C     2.093000000     2.474000000    -3.515000000
C     2.099000000     1.103000000    -3.868000000
H     1.412000000     0.702000000    -4.609000000
C     3.077000000     0.277000000    -3.370000000
O     3.024000000    -1.097000000    -3.621000000
C     2.533000000    -2.008000000    -2.647000000
C     1.502000000    -2.987000000    -3.151000000
C     1.014000000    -2.901000000    -4.405000000
H     1.419000000    -2.124000000    -5.049000000
C     0.925000000    -3.889000000    -2.267000000
H     1.152000000    -3.864000000    -1.204000000
O     3.623000000    -2.689000000    -1.919000000
H     1.905000000    -1.394000000    -1.984000000
C     4.053000000     0.783000000    -2.514000000
C     5.098000000    -0.129000000    -2.027000000
H     5.935000000     0.499000000    -1.716000000
H     5.359000000    -0.910000000    -2.744000000
C     4.691000000    -0.872000000    -0.775000000
C     3.994000000    -2.130000000    -0.731000000
C     3.668000000    -2.774000000     0.426000000
H     2.994000000    -3.627000000     0.448000000
C     3.855000000    -2.111000000     1.592000000
O     3.219000000    -2.614000000     2.714000000
C     2.026000000    -1.912000000     3.222000000
H     1.621000000    -1.367000000     2.357000000
C     0.984000000    -2.980000000     3.689000000
C     0.004000000    -2.661000000     4.659000000
H     0.056000000    -1.769000000     5.278000000
C     0.872000000    -4.141000000     2.938000000
H     1.686000000    -4.267000000     2.230000000
C    -0.005000000    -5.162000000     3.368000000
O    -0.015000000    -6.433000000     2.804000000
C    -0.895000000    -4.869000000     4.398000000
H    -1.596000000    -5.639000000     4.710000000
C    -0.955000000    -3.648000000     4.991000000
O    -2.051000000    -3.410000000     5.884000000
C    -2.480000000    -2.263000000     6.405000000
C    -3.118000000    -1.217000000     5.628000000
H    -3.199000000    -1.365000000     4.554000000
C    -2.258000000    -1.999000000     7.719000000
H    -1.746000000    -2.731000000     8.338000000
C    -2.751000000    -0.831000000     8.359000000
H    -2.542000000    -0.649000000     9.411000000
C    -3.387000000     0.184000000     7.582000000
H    -3.815000000     1.043000000     8.092000000
C    -3.542000000     0.014000000     6.202000000
O    -4.181000000     1.060000000     5.556000000
C    -3.827000000     1.600000000     4.332000000
C    -4.695000000     1.497000000     3.243000000
H    -5.666000000     1.034000000     3.397000000
C    -4.274000000     1.984000000     2.025000000
O    -5.117000000     1.781000000     0.992000000
C    -5.444000000     2.764000000     0.153000000
C    -5.006000000     2.733000000    -1.174000000
H    -4.449000000     1.874000000    -1.539000000
C    -6.037000000     3.881000000     0.639000000
H    -6.280000000     3.918000000     1.698000000
C    -6.449000000     4.908000000    -0.273000000
H    -6.844000000     5.867000000     0.051000000
C    -6.168000000     4.799000000    -1.683000000
H    -6.523000000     5.583000000    -2.347000000
C    -5.433000000     3.717000000    -2.102000000
O    -4.932000000     3.775000000    -3.371000000
C    -3.812000000     3.179000000    -3.769000000
C    -3.824000000     2.107000000    -4.584000000
H    -4.777000000     1.713000000    -4.927000000
C    -2.681000000     1.470000000    -4.973000000
O    -2.867000000     0.235000000    -5.637000000
C    -1.952000000    -0.478000000    -6.363000000
C    -1.655000000    -1.715000000    -5.909000000
H    -2.176000000    -2.142000000    -5.055000000
C    -1.281000000     0.074000000    -7.521000000
H    -1.500000000     1.079000000    -7.873000000
C    -0.510000000    -0.812000000    -8.282000000
H     0.045000000    -0.440000000    -9.139000000
C    -0.241000000    -2.104000000    -7.826000000
H     0.512000000    -2.680000000    -8.358000000
C    -0.761000000    -2.533000000    -6.631000000
O    -0.449000000    -3.711000000    -6.158000000
C     0.068000000    -3.815000000    -4.880000000
C    -0.522000000    -4.638000000    -3.980000000
H    -1.290000000    -5.300000000    -4.372000000
C    -0.063000000    -4.730000000    -2.653000000
O    -0.503000000    -5.729000000    -1.773000000
C     0.302000000    -6.237000000    -0.764000000
C     1.490000000    -6.867000000    -1.025000000
H     1.845000000    -7.072000000    -2.032000000
C     2.240000000    -7.383000000     0.067000000
H     3.252000000    -7.766000000    -0.037000000
C     1.725000000    -7.292000000     1.337000000
H     2.273000000    -7.821000000     2.112000000
C     0.508000000    -6.583000000     1.566000000
C    -0.195000000    -6.014000000     0.506000000
H    -1.187000000    -5.574000000     0.579000000
C    -2.007000000    -1.633000000     1.407000000
H    -2.518000000    -1.737000000     2.361000000
C    -1.004000000    -0.673000000     1.313000000
H    -0.833000000    -0.111000000     2.227000000
C    -0.288000000    -0.462000000     0.114000000
H     0.563000000     0.166000000     0.015000000
C    -0.747000000    -1.019000000    -1.055000000
H    -0.292000000    -0.833000000    -2.024000000
C    -1.718000000    -2.032000000    -0.985000000
H    -1.993000000    -2.540000000    -1.906000000
C    -2.387000000    -2.353000000     0.269000000
C    -3.501000000    -3.323000000     0.422000000
O    -4.148000000    -3.593000000    -0.571000000
O    -3.885000000    -3.642000000     1.511000000
O    -5.477000000    -1.963000000     3.011000000
H    -4.764000000    -2.432000000     2.579000000
H    -5.673000000    -1.232000000     2.426000000
O    -6.841000000    -3.867000000     4.268000000
H    -6.414000000    -3.129000000     3.833000000
H    -6.138000000    -4.297000000     4.755000000
O    -6.802000000    -2.870000000    -4.108000000
H    -6.938000000    -3.201000000    -3.220000000
H    -7.199000000    -1.999000000    -4.102000000
O    -4.850000000    -0.859000000    -2.032000000
H    -4.515000000    -0.869000000    -2.929000000
H    -4.238000000    -1.407000000    -1.542000000
O    -6.580000000    -4.108000000    -1.678000000
H    -5.774000000    -3.794000000    -1.266000000
H    -6.656000000    -5.018000000    -1.391000000
O    -7.483000000    -2.539000000     0.584000000
H    -7.150000000    -3.280000000     1.090000000
H    -7.314000000    -2.777000000    -0.328000000
O    -7.283000000    -6.932000000    -0.065000000
H    -6.897000000    -6.376000000     0.612000000
H    -6.809000000    -7.761000000     0.007000000
O    -2.812000000    -7.719000000     1.337000000
H    -2.071000000    -8.298000000     1.159000000
H    -3.384000000    -7.822000000     0.577000000
O    -6.048000000    -5.107000000     1.375000000
H    -5.911000000    -5.150000000     2.322000000
H    -5.283000000    -4.638000000     1.044000000
O    -3.746000000    -5.510000000    -2.796000000
H    -3.542000000    -4.826000000    -3.434000000
H    -3.916000000    -5.035000000    -1.983000000
O    -9.837000000    -5.134000000    -0.634000000
H    -9.980000000    -5.584000000    -1.467000000
H    -8.889000000    -5.162000000    -0.507000000
O    -4.092000000    -3.331000000    -4.465000000
H    -5.021000000    -3.121000000    -4.371000000
H    -4.050000000    -3.893000000    -5.239000000
O    -7.310000000     0.236000000    -2.893000000
H    -7.785000000     0.516000000    -2.110000000
H    -6.591000000    -0.300000000    -2.559000000
O    -3.645000000    -5.741000000     3.086000000
H    -3.751000000    -4.910000000     2.622000000
H    -3.371000000    -6.360000000     2.409000000
O    -5.220000000    -8.342000000     3.409000000
H    -5.561000000    -8.204000000     2.525000000
H    -4.459000000    -7.764000000     3.465000000
O    -4.566000000    -4.554000000     5.690000000
H    -3.948000000    -3.847000000     5.879000000
H    -4.131000000    -5.079000000     5.018000000
O    -5.308000000    -6.656000000    -4.694000000
H    -4.895000000    -6.198000000    -3.962000000
H    -5.598000000    -7.489000000    -4.323000000
O    -8.893000000    -0.711000000     2.114000000
H    -8.379000000    -1.357000000     1.629000000
H    -9.455000000    -1.233000000     2.687000000
O    -4.186000000    -7.816000000    -1.024000000
H    -4.030000000    -7.040000000    -1.563000000
H    -3.810000000    -8.537000000    -1.529000000
