215
-1449.49092
C    -3.911000000     1.544000000     2.106000000
H    -3.690000000     2.088000000     1.191000000
C    -2.968000000     1.468000000     3.101000000
C    -3.211000000     0.638000000     4.237000000
H    -2.506000000     0.486000000     5.050000000
C    -1.634000000     2.178000000     2.873000000
O    -1.943000000     3.590000000     2.483000000
H    -1.092000000     1.694000000     2.048000000
O    -0.877000000     2.127000000     4.117000000
C     0.489000000     2.028000000     4.118000000
C     0.972000000     0.780000000     4.425000000
H     0.341000000    -0.050000000     4.733000000
C     2.266000000     0.440000000     4.238000000
O     2.733000000    -0.781000000     4.398000000
C     3.100000000     1.365000000     3.672000000
C     4.488000000     1.022000000     3.207000000
H     5.161000000     1.875000000     3.095000000
C     4.521000000     0.320000000     1.838000000
C     4.824000000     1.055000000     0.687000000
H     5.132000000     2.096000000     0.747000000
H     5.001000000     0.330000000     3.878000000
C     2.639000000     2.598000000     3.316000000
H     3.352000000     3.218000000     2.778000000
C     1.327000000     2.979000000     3.528000000
C     0.798000000     4.426000000     3.158000000
H     1.676000000     5.074000000     3.108000000
H     0.184000000     4.838000000     3.961000000
C     0.142000000     4.498000000     1.788000000
C     0.962000000     4.780000000     0.687000000
H     2.032000000     4.927000000     0.811000000
C    -1.172000000     4.125000000     1.562000000
C    -1.664000000     4.106000000     0.203000000
H    -2.620000000     3.619000000     0.030000000
C    -0.877000000     4.551000000    -0.863000000
O    -1.288000000     4.287000000    -2.131000000
C    -0.958000000     3.066000000    -2.710000000
C    -2.207000000     2.543000000    -3.439000000
C    -1.920000000     1.743000000    -4.572000000
H    -0.883000000     1.551000000    -4.835000000
C    -3.487000000     2.739000000    -2.929000000
H    -3.611000000     3.323000000    -2.020000000
O     0.100000000     3.442000000    -3.630000000
H    -0.544000000     2.337000000    -1.997000000
C     0.468000000     4.828000000    -0.633000000
C     1.450000000     5.036000000    -1.727000000
H     2.226000000     5.682000000    -1.312000000
H     0.978000000     5.575000000    -2.550000000
C     2.044000000     3.809000000    -2.261000000
C     3.338000000     3.327000000    -1.903000000
H     3.971000000     3.804000000    -1.159000000
C     1.379000000     3.101000000    -3.269000000
C     1.836000000     1.937000000    -3.832000000
H     1.355000000     1.462000000    -4.684000000
C     2.886000000     1.358000000    -3.211000000
O     3.249000000     0.026000000    -3.593000000
C     2.994000000    -1.092000000    -2.713000000
C     2.207000000    -2.254000000    -3.226000000
C     1.776000000    -2.223000000    -4.524000000
H     1.996000000    -1.355000000    -5.141000000
C     1.961000000    -3.368000000    -2.403000000
H     2.411000000    -3.403000000    -1.414000000
O     4.216000000    -1.441000000    -2.055000000
H     2.386000000    -0.751000000    -1.862000000
C     3.773000000     2.064000000    -2.356000000
C     5.025000000     1.456000000    -1.761000000
H     5.697000000     2.245000000    -1.416000000
H     5.617000000     0.957000000    -2.532000000
C     4.776000000     0.454000000    -0.581000000
C     4.411000000    -0.887000000    -0.790000000
C     4.069000000    -1.643000000     0.335000000
H     3.770000000    -2.684000000     0.242000000
C     4.132000000    -1.056000000     1.649000000
O     3.889000000    -1.810000000     2.730000000
C     2.587000000    -1.602000000     3.278000000
H     1.978000000    -1.124000000     2.497000000
C     1.868000000    -2.893000000     3.632000000
C     0.747000000    -3.044000000     4.413000000
H     0.495000000    -2.205000000     5.058000000
C     2.336000000    -3.970000000     2.902000000
H     3.241000000    -3.881000000     2.307000000
C     1.747000000    -5.216000000     3.091000000
O     2.301000000    -6.293000000     2.402000000
C     0.627000000    -5.396000000     3.859000000
H     0.195000000    -6.390000000     3.946000000
C     0.161000000    -4.320000000     4.520000000
O    -0.986000000    -4.518000000     5.332000000
C    -1.705000000    -3.561000000     5.941000000
C    -2.754000000    -2.951000000     5.278000000
H    -3.016000000    -3.336000000     4.295000000
C    -1.354000000    -3.005000000     7.147000000
H    -0.513000000    -3.387000000     7.719000000
C    -2.029000000    -1.978000000     7.779000000
H    -1.683000000    -1.745000000     8.782000000
C    -3.004000000    -1.322000000     7.041000000
H    -3.413000000    -0.366000000     7.357000000
C    -3.415000000    -1.823000000     5.806000000
O    -4.481000000    -1.253000000     5.148000000
C    -4.345000000    -0.180000000     4.201000000
C    -5.319000000     0.009000000     3.298000000
H    -6.167000000    -0.669000000     3.233000000
C    -5.068000000     0.839000000     2.151000000
O    -5.884000000     0.736000000     1.100000000
C    -6.245000000     1.773000000     0.264000000
C    -5.801000000     1.647000000    -1.068000000
H    -5.094000000     0.936000000    -1.489000000
C    -7.036000000     2.779000000     0.677000000
H    -7.281000000     2.937000000     1.724000000
C    -7.260000000     3.851000000    -0.212000000
H    -7.862000000     4.701000000     0.099000000
C    -6.948000000     3.639000000    -1.578000000
H    -7.238000000     4.359000000    -2.339000000
C    -6.220000000     2.567000000    -2.002000000
O    -5.830000000     2.323000000    -3.294000000
C    -4.530000000     2.149000000    -3.651000000
C    -4.344000000     1.389000000    -4.802000000
H    -5.173000000     1.015000000    -5.397000000
C    -3.040000000     1.142000000    -5.213000000
O    -2.949000000     0.327000000    -6.318000000
C    -1.749000000    -0.059000000    -6.889000000
C    -1.268000000    -1.259000000    -6.415000000
H    -1.863000000    -1.885000000    -5.756000000
C    -0.975000000     0.778000000    -7.692000000
H    -1.379000000     1.700000000    -8.103000000
C     0.330000000     0.390000000    -7.986000000
H     0.874000000     1.038000000    -8.668000000
C     0.762000000    -0.925000000    -7.646000000
H     1.703000000    -1.374000000    -7.953000000
C    -0.034000000    -1.709000000    -6.831000000
O     0.484000000    -2.913000000    -6.314000000
C     0.867000000    -3.140000000    -5.021000000
C     0.473000000    -4.208000000    -4.177000000
H    -0.241000000    -4.932000000    -4.562000000
C     1.062000000    -4.370000000    -2.906000000
O     0.761000000    -5.412000000    -1.990000000
C     1.797000000    -6.030000000    -1.239000000
C     3.085000000    -6.285000000    -1.693000000
H     3.272000000    -6.163000000    -2.757000000
C     4.116000000    -6.460000000    -0.764000000
H     5.157000000    -6.480000000    -1.076000000
C     3.809000000    -6.522000000     0.584000000
H     4.672000000    -6.582000000     1.242000000
C     2.556000000    -6.274000000     1.014000000
C     1.506000000    -6.060000000     0.117000000
H     0.496000000    -5.809000000     0.431000000
C    -1.472000000    -1.933000000     0.729000000
H    -1.912000000    -2.550000000     1.508000000
C    -0.650000000    -0.860000000     1.091000000
H    -0.485000000    -0.721000000     2.156000000
C    -0.051000000    -0.025000000     0.149000000
H     0.601000000     0.851000000     0.431000000
C    -0.304000000    -0.374000000    -1.207000000
H     0.275000000     0.192000000    -1.932000000
C    -1.023000000    -1.496000000    -1.599000000
H    -1.010000000    -1.899000000    -2.609000000
C    -1.599000000    -2.302000000    -0.632000000
C    -2.417000000    -3.557000000    -0.934000000
O    -2.613000000    -4.050000000    -2.029000000
O    -2.906000000    -4.143000000     0.052000000
O    -6.918000000    -4.185000000    -0.379000000
H    -6.267000000    -4.504000000     0.246000000
H    -6.408000000    -3.927000000    -1.146000000
O    -6.075000000    -5.365000000    -3.986000000
H    -5.637000000    -4.652000000    -3.523000000
H    -5.376000000    -5.988000000    -4.184000000
O    -5.210000000    -3.303000000    -2.334000000
H    -5.385000000    -2.932000000    -3.198000000
H    -4.271000000    -3.491000000    -2.339000000
O    -2.928000000    -3.863000000    -4.561000000
H    -3.148000000    -4.749000000    -4.848000000
H    -2.751000000    -3.951000000    -3.625000000
O    -4.792000000    -5.868000000     0.077000000
H    -4.759000000    -6.130000000     0.996000000
H    -4.030000000    -5.300000000    -0.038000000
O    -7.066000000    -1.349000000    -1.280000000
H    -7.305000000    -1.068000000    -0.397000000
H    -6.450000000    -2.069000000    -1.144000000
O    -7.296000000    -0.610000000    -4.025000000
H    -6.458000000    -0.938000000    -4.349000000
H    -7.199000000    -0.604000000    -3.072000000
O    -1.840000000    -6.265000000     2.030000000
H    -2.257000000    -5.733000000     1.353000000
H    -2.432000000    -6.206000000     2.780000000
O    -1.699000000    -6.586000000    -2.070000000
H    -0.879000000    -6.576000000    -1.577000000
H    -2.113000000    -5.748000000    -1.864000000
O    -4.678000000    -6.738000000     2.693000000
H    -4.026000000    -7.221000000     3.201000000
H    -5.365000000    -7.381000000     2.513000000
O    -3.657000000    -8.913000000    -1.897000000
H    -4.566000000    -8.725000000    -2.134000000
H    -3.209000000    -8.071000000    -1.981000000
O    -6.055000000    -3.800000000     4.520000000
H    -5.718000000    -2.939000000     4.766000000
H    -5.697000000    -3.956000000     3.646000000
O    -2.004000000    -7.744000000    -4.333000000
H    -1.934000000    -7.186000000    -3.559000000
H    -2.505000000    -7.222000000    -4.960000000
O    -3.522000000    -6.004000000    -5.971000000
H    -3.441000000    -5.436000000    -6.737000000
H    -4.006000000    -6.767000000    -6.289000000
O    -5.294000000    -2.224000000    -5.227000000
H    -4.374000000    -2.156000000    -4.971000000
H    -5.277000000    -2.708000000    -6.052000000
O    -4.637000000    -3.136000000     1.828000000
H    -4.417000000    -2.205000000     1.820000000
H    -4.050000000    -3.526000000     1.180000000
O    -6.068000000    -7.594000000    -1.503000000
H    -5.589000000    -6.974000000    -0.953000000
H    -6.484000000    -7.050000000    -2.171000000
O    -2.660000000   -10.327000000     0.179000000
H    -1.798000000    -9.969000000     0.389000000
H    -2.990000000    -9.763000000    -0.521000000
O    -0.719000000    -8.639000000     1.205000000
H     0.198000000    -8.445000000     1.398000000
H    -1.130000000    -7.780000000     1.105000000
