215
-1438.79701
C    -4.115000000     2.353000000     2.211000000
H    -4.240000000     3.375000000     1.863000000
C    -2.947000000     1.743000000     2.598000000
C    -2.946000000     0.418000000     3.081000000
H    -1.976000000     0.020000000     3.369000000
C    -1.653000000     2.490000000     2.611000000
O    -1.873000000     3.894000000     2.437000000
H    -0.965000000     2.131000000     1.831000000
O    -1.008000000     2.348000000     3.895000000
C     0.361000000     2.140000000     3.910000000
C     0.766000000     0.891000000     4.190000000
H     0.028000000     0.249000000     4.662000000
C     2.110000000     0.483000000     4.049000000
O     2.435000000    -0.822000000     4.386000000
C     3.037000000     1.412000000     3.567000000
C     4.438000000     1.073000000     3.283000000
H     5.075000000     1.958000000     3.226000000
C     4.542000000     0.400000000     1.948000000
C     4.784000000     1.160000000     0.787000000
H     4.752000000     2.245000000     0.852000000
H     4.763000000     0.521000000     4.167000000
C     2.664000000     2.652000000     3.225000000
H     3.304000000     3.374000000     2.724000000
C     1.333000000     3.024000000     3.373000000
C     0.949000000     4.449000000     2.993000000
H     1.830000000     5.088000000     3.077000000
H     0.196000000     4.760000000     3.720000000
C     0.288000000     4.577000000     1.680000000
C     1.021000000     4.937000000     0.545000000
H     2.046000000     5.279000000     0.661000000
C    -1.073000000     4.403000000     1.483000000
C    -1.640000000     4.435000000     0.202000000
H    -2.683000000     4.171000000     0.044000000
C    -0.816000000     4.624000000    -0.905000000
O    -1.368000000     4.428000000    -2.124000000
C    -1.114000000     3.173000000    -2.786000000
C    -2.369000000     2.469000000    -3.410000000
C    -2.228000000     1.412000000    -4.347000000
H    -1.231000000     1.046000000    -4.577000000
C    -3.664000000     2.971000000    -3.128000000
H    -3.902000000     3.847000000    -2.531000000
O     0.041000000     3.292000000    -3.640000000
H    -0.812000000     2.498000000    -1.972000000
C     0.514000000     4.981000000    -0.718000000
C     1.414000000     5.138000000    -1.970000000
H     2.180000000     5.899000000    -1.804000000
H     0.958000000     5.431000000    -2.918000000
C     2.024000000     3.809000000    -2.225000000
C     3.239000000     3.293000000    -1.806000000
H     3.891000000     3.983000000    -1.276000000
C     1.297000000     2.952000000    -3.116000000
C     1.687000000     1.684000000    -3.436000000
H     1.061000000     1.084000000    -4.090000000
C     2.836000000     1.136000000    -2.905000000
O     3.195000000    -0.136000000    -3.250000000
C     3.079000000    -1.272000000    -2.303000000
C     2.382000000    -2.442000000    -2.978000000
C     1.774000000    -2.316000000    -4.276000000
H     2.021000000    -1.506000000    -4.958000000
C     2.196000000    -3.533000000    -2.183000000
H     2.672000000    -3.653000000    -1.213000000
O     4.417000000    -1.547000000    -1.716000000
H     2.384000000    -0.956000000    -1.510000000
C     3.619000000     1.990000000    -2.074000000
C     4.996000000     1.402000000    -1.623000000
H     5.585000000     2.277000000    -1.342000000
H     5.470000000     0.895000000    -2.466000000
C     4.830000000     0.452000000    -0.457000000
C     4.659000000    -0.901000000    -0.571000000
C     4.569000000    -1.652000000     0.655000000
H     4.360000000    -2.719000000     0.656000000
C     4.474000000    -0.999000000     1.874000000
O     4.172000000    -1.716000000     3.016000000
C     2.735000000    -1.714000000     3.282000000
H     2.254000000    -1.357000000     2.359000000
C     2.230000000    -3.130000000     3.471000000
C     0.955000000    -3.295000000     4.085000000
H     0.382000000    -2.421000000     4.384000000
C     2.857000000    -4.284000000     3.042000000
H     3.829000000    -4.350000000     2.561000000
C     2.280000000    -5.522000000     3.228000000
O     2.817000000    -6.662000000     2.647000000
C     1.074000000    -5.701000000     3.876000000
H     0.559000000    -6.657000000     3.818000000
C     0.471000000    -4.542000000     4.423000000
O    -0.750000000    -4.696000000     5.024000000
C    -1.615000000    -3.642000000     5.295000000
C    -2.353000000    -3.159000000     4.222000000
H    -2.393000000    -3.668000000     3.263000000
C    -1.747000000    -3.089000000     6.563000000
H    -1.164000000    -3.455000000     7.404000000
C    -2.620000000    -2.041000000     6.720000000
H    -2.780000000    -1.643000000     7.718000000
C    -3.425000000    -1.577000000     5.677000000
H    -4.148000000    -0.790000000     5.875000000
C    -3.276000000    -2.133000000     4.411000000
O    -4.025000000    -1.621000000     3.425000000
C    -4.065000000    -0.330000000     3.097000000
C    -5.282000000     0.266000000     2.693000000
H    -6.150000000    -0.385000000     2.632000000
C    -5.278000000     1.620000000     2.188000000
O    -6.414000000     2.224000000     1.730000000
C    -6.382000000     3.033000000     0.624000000
C    -6.039000000     2.440000000    -0.592000000
H    -5.621000000     1.439000000    -0.661000000
C    -6.734000000     4.336000000     0.733000000
H    -7.135000000     4.778000000     1.641000000
C    -6.951000000     5.097000000    -0.385000000
H    -7.291000000     6.127000000    -0.320000000
C    -6.689000000     4.520000000    -1.647000000
H    -6.878000000     5.092000000    -2.552000000
C    -6.194000000     3.204000000    -1.776000000
O    -5.979000000     2.597000000    -3.020000000
C    -4.763000000     2.297000000    -3.586000000
C    -4.644000000     1.215000000    -4.387000000
H    -5.593000000     0.807000000    -4.726000000
C    -3.419000000     0.783000000    -4.804000000
O    -3.364000000    -0.301000000    -5.598000000
C    -2.179000000    -0.660000000    -6.211000000
C    -1.615000000    -1.770000000    -5.747000000
H    -2.152000000    -2.507000000    -5.156000000
C    -1.527000000     0.204000000    -7.030000000
H    -2.118000000     1.035000000    -7.405000000
C    -0.252000000    -0.066000000    -7.435000000
H     0.168000000     0.589000000    -8.194000000
C     0.343000000    -1.289000000    -7.104000000
H     1.338000000    -1.601000000    -7.411000000
C    -0.381000000    -2.120000000    -6.260000000
O     0.191000000    -3.275000000    -5.866000000
C     0.924000000    -3.374000000    -4.726000000
C     0.776000000    -4.509000000    -3.891000000
H     0.117000000    -5.295000000    -4.249000000
C     1.348000000    -4.583000000    -2.564000000
O     1.249000000    -5.617000000    -1.702000000
C     2.260000000    -6.155000000    -0.913000000
C     3.491000000    -6.619000000    -1.410000000
H     3.633000000    -6.579000000    -2.487000000
C     4.467000000    -7.131000000    -0.540000000
H     5.421000000    -7.460000000    -0.945000000
C     4.185000000    -7.135000000     0.783000000
H     4.913000000    -7.494000000     1.505000000
C     2.986000000    -6.670000000     1.296000000
C     1.983000000    -6.209000000     0.455000000
H     1.065000000    -5.857000000     0.919000000
C    -0.964000000    -2.557000000     0.052000000
H    -1.086000000    -3.437000000     0.679000000
C    -0.387000000    -1.470000000     0.640000000
H    -0.094000000    -1.563000000     1.682000000
C     0.010000000    -0.376000000    -0.137000000
H     0.680000000     0.342000000     0.244000000
C    -0.387000000    -0.389000000    -1.491000000
H    -0.122000000     0.413000000    -2.175000000
C    -1.081000000    -1.455000000    -2.069000000
H    -1.526000000    -1.322000000    -3.052000000
C    -1.287000000    -2.591000000    -1.285000000
C    -2.207000000    -3.659000000    -1.748000000
O    -2.937000000    -3.432000000    -2.730000000
O    -2.466000000    -4.572000000    -1.035000000
O    -7.382000000    -4.177000000     0.434000000
H    -6.523000000    -3.821000000     0.664000000
H    -7.307000000    -5.115000000     0.609000000
O    -6.589000000    -6.645000000    -4.031000000
H    -5.889000000    -7.284000000    -4.165000000
H    -6.199000000    -5.976000000    -3.469000000
O    -5.317000000    -5.000000000    -2.225000000
H    -5.854000000    -4.236000000    -2.013000000
H    -4.416000000    -4.692000000    -2.135000000
O    -0.024000000    -6.323000000    -6.501000000
H    -0.917000000    -6.494000000    -6.203000000
H     0.044000000    -5.368000000    -6.519000000
O    -2.648000000    -5.631000000    -4.616000000
H    -3.160000000    -5.509000000    -5.415000000
H    -3.099000000    -5.100000000    -3.959000000
O    -4.267000000    -1.250000000    -0.413000000
H    -3.338000000    -1.031000000    -0.342000000
H    -4.336000000    -2.127000000    -0.037000000
O    -6.568000000    -0.911000000    -2.195000000
H    -6.068000000    -1.511000000    -2.747000000
H    -6.109000000    -0.920000000    -1.355000000
O    -1.811000000    -6.760000000     0.584000000
H    -1.983000000    -6.026000000    -0.006000000
H    -2.437000000    -6.645000000     1.298000000
O    -0.693000000    -7.577000000    -1.835000000
H    -1.583000000    -7.227000000    -1.861000000
H    -0.175000000    -6.885000000    -1.424000000
O    -3.238000000    -6.811000000     2.780000000
H    -2.866000000    -7.056000000     3.627000000
H    -3.872000000    -7.502000000     2.587000000
O    -5.046000000    -6.976000000    -0.589000000
H    -5.782000000    -6.897000000     0.018000000
H    -5.067000000    -6.167000000    -1.099000000
O    -5.769000000    -4.797000000     3.399000000
H    -4.998000000    -5.273000000     3.705000000
H    -5.435000000    -3.936000000     3.148000000
O    -5.401000000    -3.849000000    -6.198000000
H    -5.386000000    -3.367000000    -5.371000000
H    -4.491000000    -3.845000000    -6.494000000
O    -2.264000000    -8.366000000    -4.233000000
H    -1.311000000    -8.436000000    -4.282000000
H    -2.424000000    -7.469000000    -3.939000000
O    -3.165000000    -5.556000000    -7.264000000
H    -3.107000000    -5.563000000    -8.220000000
H    -3.321000000    -6.471000000    -7.028000000
O    -4.914000000    -2.109000000    -3.953000000
H    -4.284000000    -2.571000000    -3.400000000
H    -4.451000000    -1.320000000    -4.235000000
O    -4.262000000    -4.363000000     0.916000000
H    -4.386000000    -5.207000000     1.350000000
H    -3.416000000    -4.443000000     0.475000000
O    -1.414000000   -10.227000000    -1.748000000
H    -1.158000000    -9.308000000    -1.826000000
H    -0.717000000   -10.708000000    -2.194000000
O    -0.578000000    -8.820000000     1.921000000
H    -0.464000000    -9.368000000     1.145000000
H    -0.868000000    -7.975000000     1.577000000
