215
-1434.24457
C    -3.643000000     2.095000000     2.768000000
H    -3.663000000     3.131000000     2.440000000
C    -2.483000000     1.578000000     3.369000000
C    -2.502000000     0.273000000     3.828000000
H    -1.677000000    -0.267000000     4.286000000
C    -1.091000000     2.264000000     3.362000000
O    -1.117000000     3.668000000     3.073000000
H    -0.670000000     1.739000000     2.491000000
O    -0.291000000     2.190000000     4.490000000
C     1.027000000     1.796000000     4.335000000
C     1.324000000     0.450000000     4.583000000
H     0.611000000    -0.286000000     4.948000000
C     2.518000000    -0.066000000     4.100000000
O     2.670000000    -1.441000000     4.110000000
C     3.480000000     0.769000000     3.540000000
C     4.731000000     0.188000000     2.907000000
H     5.368000000     1.074000000     2.877000000
C     4.545000000    -0.291000000     1.516000000
C     4.906000000     0.455000000     0.393000000
H     5.395000000     1.421000000     0.493000000
H     5.152000000    -0.632000000     3.492000000
C     3.155000000     2.110000000     3.407000000
H     3.930000000     2.812000000     3.109000000
C     1.929000000     2.678000000     3.725000000
C     1.629000000     4.073000000     3.533000000
H     2.570000000     4.623000000     3.603000000
H     1.106000000     4.514000000     4.385000000
C     0.959000000     4.214000000     2.186000000
C     1.754000000     4.446000000     1.094000000
H     2.832000000     4.432000000     1.237000000
C    -0.430000000     4.025000000     2.003000000
C    -1.003000000     4.425000000     0.853000000
H    -2.086000000     4.362000000     0.776000000
C    -0.225000000     4.646000000    -0.281000000
O    -0.835000000     4.772000000    -1.500000000
C    -0.737000000     3.582000000    -2.469000000
C    -2.134000000     3.235000000    -3.082000000
C    -2.242000000     2.331000000    -4.063000000
H    -1.326000000     1.845000000    -4.389000000
C    -3.278000000     3.755000000    -2.482000000
H    -3.199000000     4.403000000    -1.613000000
O     0.309000000     3.714000000    -3.410000000
H    -0.527000000     2.757000000    -1.772000000
C     1.170000000     4.693000000    -0.135000000
C     2.067000000     5.010000000    -1.334000000
H     3.017000000     5.362000000    -0.926000000
H     1.652000000     5.794000000    -1.971000000
C     2.325000000     3.763000000    -2.166000000
C     3.493000000     3.062000000    -1.806000000
H     4.193000000     3.391000000    -1.043000000
C     1.486000000     3.220000000    -3.124000000
C     1.751000000     1.984000000    -3.692000000
H     1.207000000     1.569000000    -4.536000000
C     2.896000000     1.312000000    -3.433000000
O     3.018000000    -0.017000000    -3.839000000
C     2.550000000    -1.102000000    -2.897000000
C     1.682000000    -2.169000000    -3.614000000
C     1.259000000    -2.028000000    -4.906000000
H     1.493000000    -1.103000000    -5.427000000
C     1.323000000    -3.335000000    -2.948000000
H     1.640000000    -3.547000000    -1.931000000
O     3.753000000    -1.708000000    -2.344000000
H     1.904000000    -0.717000000    -2.095000000
C     3.779000000     1.803000000    -2.462000000
C     4.977000000     0.976000000    -2.011000000
H     5.865000000     1.542000000    -1.717000000
H     5.241000000     0.437000000    -2.923000000
C     4.674000000     0.003000000    -0.901000000
C     4.091000000    -1.248000000    -1.098000000
C     3.907000000    -2.086000000    -0.019000000
H     3.594000000    -3.120000000    -0.143000000
C     4.132000000    -1.575000000     1.254000000
O     3.764000000    -2.394000000     2.273000000
C     2.448000000    -2.194000000     2.839000000
H     1.911000000    -1.550000000     2.127000000
C     1.895000000    -3.578000000     3.013000000
C     1.121000000    -3.789000000     4.173000000
H     0.987000000    -2.962000000     4.865000000
C     1.950000000    -4.623000000     2.078000000
H     2.435000000    -4.448000000     1.121000000
C     1.297000000    -5.787000000     2.351000000
O     1.374000000    -6.858000000     1.485000000
C     0.563000000    -5.948000000     3.507000000
H    -0.002000000    -6.874000000     3.581000000
C     0.371000000    -4.920000000     4.410000000
O    -0.409000000    -4.915000000     5.583000000
C    -1.276000000    -3.857000000     5.791000000
C    -2.140000000    -3.428000000     4.717000000
H    -2.106000000    -3.732000000     3.674000000
C    -1.351000000    -3.323000000     7.065000000
H    -0.705000000    -3.570000000     7.904000000
C    -2.239000000    -2.282000000     7.334000000
H    -2.206000000    -1.850000000     8.331000000
C    -3.055000000    -1.797000000     6.306000000
H    -3.792000000    -1.018000000     6.481000000
C    -2.974000000    -2.357000000     4.996000000
O    -3.733000000    -1.870000000     3.986000000
C    -3.615000000    -0.549000000     3.592000000
C    -4.668000000    -0.013000000     2.926000000
H    -5.486000000    -0.647000000     2.592000000
C    -4.775000000     1.339000000     2.704000000
O    -5.897000000     1.854000000     2.131000000
C    -5.961000000     2.952000000     1.278000000
C    -5.786000000     2.791000000    -0.074000000
H    -5.575000000     1.814000000    -0.502000000
C    -6.361000000     4.151000000     1.844000000
H    -6.456000000     4.175000000     2.927000000
C    -6.444000000     5.235000000     0.969000000
H    -6.656000000     6.239000000     1.328000000
C    -6.258000000     5.096000000    -0.391000000
H    -6.087000000     5.939000000    -1.055000000
C    -5.954000000     3.866000000    -0.916000000
O    -5.602000000     3.656000000    -2.268000000
C    -4.468000000     3.269000000    -2.887000000
C    -4.513000000     2.320000000    -3.901000000
H    -5.439000000     1.763000000    -4.021000000
C    -3.406000000     1.859000000    -4.531000000
O    -3.475000000     0.757000000    -5.440000000
C    -2.509000000     0.302000000    -6.258000000
C    -1.841000000    -0.899000000    -6.002000000
H    -2.082000000    -1.362000000    -5.049000000
C    -2.267000000     0.921000000    -7.543000000
H    -2.857000000     1.800000000    -7.791000000
C    -1.209000000     0.548000000    -8.280000000
H    -0.856000000     1.093000000    -9.152000000
C    -0.516000000    -0.608000000    -8.000000000
H     0.194000000    -0.966000000    -8.741000000
C    -0.895000000    -1.369000000    -6.918000000
O    -0.168000000    -2.499000000    -6.751000000
C     0.273000000    -2.827000000    -5.434000000
C    -0.111000000    -3.982000000    -4.768000000
H    -0.894000000    -4.617000000    -5.175000000
C     0.553000000    -4.330000000    -3.606000000
O     0.197000000    -5.433000000    -2.920000000
C     1.095000000    -6.047000000    -2.018000000
C     2.443000000    -6.342000000    -2.439000000
H     2.793000000    -6.013000000    -3.415000000
C     3.354000000    -6.847000000    -1.511000000
H     4.397000000    -6.986000000    -1.783000000
C     2.965000000    -7.137000000    -0.278000000
H     3.666000000    -7.592000000     0.417000000
C     1.686000000    -6.743000000     0.177000000
C     0.717000000    -6.213000000    -0.721000000
H    -0.277000000    -5.884000000    -0.430000000
C    -1.724000000    -2.023000000     0.860000000
H    -1.947000000    -2.803000000     1.584000000
C    -0.652000000    -1.164000000     1.258000000
H    -0.306000000    -1.296000000     2.279000000
C    -0.135000000    -0.202000000     0.376000000
H     0.677000000     0.495000000     0.517000000
C    -0.774000000    -0.103000000    -0.888000000
H    -0.362000000     0.472000000    -1.713000000
C    -1.847000000    -0.936000000    -1.291000000
H    -2.402000000    -0.787000000    -2.214000000
C    -2.384000000    -1.857000000    -0.377000000
C    -3.489000000    -2.829000000    -0.828000000
O    -4.101000000    -2.624000000    -1.915000000
O    -3.835000000    -3.738000000    -0.132000000
O    -4.095000000    -5.551000000     1.768000000
H    -4.873000000    -5.275000000     2.253000000
H    -3.869000000    -4.795000000     1.227000000
O    -5.961000000    -6.557000000    -2.670000000
H    -6.756000000    -7.087000000    -2.733000000
H    -5.457000000    -6.788000000    -3.450000000
O    -9.512000000    -2.368000000     0.052000000
H   -10.230000000    -2.436000000     0.681000000
H    -8.742000000    -2.671000000     0.534000000
O    -6.551000000    -4.069000000    -1.765000000
H    -6.487000000    -5.001000000    -1.973000000
H    -5.644000000    -3.765000000    -1.746000000
O    -6.715000000    -5.808000000     2.466000000
H    -7.200000000    -5.148000000     2.962000000
H    -7.319000000    -6.548000000     2.398000000
O    -7.571000000    -2.106000000    -5.667000000
H    -6.813000000    -2.434000000    -6.150000000
H    -7.770000000    -2.798000000    -5.036000000
O    -3.779000000    -6.649000000    -4.160000000
H    -2.914000000    -6.693000000    -4.569000000
H    -3.599000000    -6.635000000    -3.220000000
O    -1.461000000    -8.861000000    -1.542000000
H    -1.412000000    -7.938000000    -1.788000000
H    -2.397000000    -9.032000000    -1.437000000
O    -8.285000000     0.091000000    -3.770000000
H    -8.695000000    -0.432000000    -3.081000000
H    -7.909000000    -0.554000000    -4.369000000
O    -6.643000000    -3.315000000     0.861000000
H    -5.720000000    -3.296000000     1.117000000
H    -6.648000000    -3.767000000     0.018000000
O    -6.114000000    -0.326000000    -1.867000000
H    -5.451000000    -1.015000000    -1.823000000
H    -6.271000000    -0.204000000    -2.804000000
O    -2.435000000    -6.056000000    -1.787000000
H    -2.855000000    -5.611000000    -1.051000000
H    -1.839000000    -5.403000000    -2.154000000
O    -5.502000000    -7.453000000    -0.031000000
H    -5.131000000    -7.004000000    -0.791000000
H    -5.118000000    -7.005000000     0.722000000
O    -8.506000000    -4.128000000    -4.000000000
H    -7.701000000    -4.037000000    -3.491000000
H    -9.207000000    -4.080000000    -3.350000000
O    -4.903000000    -2.064000000    -6.225000000
H    -4.910000000    -1.106000000    -6.214000000
H    -4.131000000    -2.303000000    -5.711000000
O    -7.142000000    -2.300000000     3.606000000
H    -7.078000000    -2.737000000     2.757000000
H    -6.314000000    -2.502000000     4.042000000
O    -8.726000000     0.158000000    -0.913000000
H    -7.819000000    -0.035000000    -1.150000000
H    -9.088000000    -0.686000000    -0.644000000
O    -3.540000000    -3.407000000    -4.181000000
H    -3.787000000    -2.989000000    -3.356000000
H    -3.940000000    -4.275000000    -4.140000000
O    -2.268000000    -7.595000000     3.266000000
H    -1.750000000    -7.881000000     2.514000000
H    -2.762000000    -6.841000000     2.943000000
