215
-1453.32190
C    -3.437000000    -2.078000000     3.169000000
H    -3.334000000    -2.721000000     2.299000000
C    -3.485000000    -0.637000000     2.952000000
C    -3.317000000     0.180000000     4.051000000
H    -3.456000000     1.251000000     3.927000000
C    -3.726000000    -0.051000000     1.558000000
O    -4.659000000    -0.853000000     0.759000000
H    -2.741000000    -0.081000000     1.071000000
O    -4.259000000     1.275000000     1.696000000
C    -3.903000000     2.276000000     0.852000000
C    -2.950000000     3.217000000     1.337000000
H    -2.734000000     3.367000000     2.392000000
C    -2.320000000     4.070000000     0.460000000
O    -1.268000000     4.811000000     1.074000000
C    -2.580000000     4.115000000    -0.880000000
C    -1.781000000     4.943000000    -1.813000000
H    -2.317000000     5.063000000    -2.756000000
C    -0.494000000     4.290000000    -2.244000000
C    -0.406000000     3.653000000    -3.469000000
H    -1.325000000     3.567000000    -4.043000000
H    -1.592000000     5.912000000    -1.346000000
C    -3.557000000     3.134000000    -1.354000000
H    -3.594000000     2.920000000    -2.419000000
C    -4.278000000     2.265000000    -0.520000000
C    -5.257000000     1.315000000    -1.116000000
H    -5.800000000     1.735000000    -1.965000000
H    -6.042000000     1.141000000    -0.377000000
C    -4.545000000     0.038000000    -1.510000000
C    -4.122000000    -0.157000000    -2.789000000
H    -4.216000000     0.639000000    -3.524000000
C    -4.454000000    -1.021000000    -0.605000000
C    -4.033000000    -2.221000000    -1.067000000
H    -3.857000000    -3.043000000    -0.378000000
C    -3.441000000    -2.321000000    -2.309000000
O    -2.730000000    -3.487000000    -2.396000000
C    -1.251000000    -3.418000000    -2.426000000
C    -0.580000000    -4.619000000    -1.691000000
C     0.620000000    -5.173000000    -2.177000000
H     0.832000000    -4.916000000    -3.211000000
C    -0.994000000    -5.062000000    -0.444000000
H    -1.930000000    -4.642000000    -0.083000000
O    -0.850000000    -3.171000000    -3.813000000
H    -1.097000000    -2.465000000    -1.898000000
C    -3.559000000    -1.337000000    -3.248000000
C    -2.947000000    -1.358000000    -4.637000000
H    -3.455000000    -0.679000000    -5.325000000
H    -3.096000000    -2.367000000    -5.028000000
C    -1.484000000    -1.008000000    -4.578000000
C    -1.124000000     0.300000000    -4.884000000
H    -1.854000000     1.088000000    -5.048000000
C    -0.501000000    -1.959000000    -4.221000000
C     0.817000000    -1.560000000    -4.180000000
H     1.551000000    -2.303000000    -3.880000000
C     1.188000000    -0.222000000    -4.436000000
O     2.471000000     0.125000000    -4.243000000
C     2.839000000     0.785000000    -3.031000000
C     3.978000000     0.189000000    -2.223000000
C     4.296000000    -1.191000000    -2.242000000
H     3.734000000    -1.899000000    -2.846000000
C     4.744000000     0.997000000    -1.368000000
H     4.585000000     2.069000000    -1.284000000
O     3.016000000     2.195000000    -3.296000000
H     2.056000000     0.733000000    -2.261000000
C     0.196000000     0.701000000    -4.768000000
C     0.708000000     2.123000000    -5.171000000
H    -0.039000000     2.501000000    -5.871000000
H     1.633000000     2.148000000    -5.749000000
C     0.798000000     3.013000000    -3.941000000
C     1.949000000     3.043000000    -3.103000000
C     1.826000000     3.713000000    -1.920000000
H     2.719000000     3.754000000    -1.302000000
C     0.681000000     4.280000000    -1.488000000
O     0.677000000     4.930000000    -0.293000000
C     0.017000000     4.277000000     0.778000000
H    -0.245000000     3.273000000     0.412000000
C     0.912000000     4.273000000     2.035000000
C     0.348000000     3.731000000     3.219000000
H    -0.729000000     3.600000000     3.275000000
C     2.229000000     4.630000000     2.039000000
H     2.715000000     5.095000000     1.185000000
C     3.069000000     4.296000000     3.139000000
O     4.442000000     4.588000000     3.201000000
C     2.571000000     3.699000000     4.261000000
H     3.150000000     3.381000000     5.124000000
C     1.146000000     3.504000000     4.345000000
O     0.583000000     2.843000000     5.367000000
C    -0.641000000     2.933000000     5.910000000
C    -1.271000000     1.695000000     6.103000000
H    -0.761000000     0.766000000     5.859000000
C    -1.294000000     4.145000000     6.163000000
H    -0.852000000     5.116000000     5.954000000
C    -2.607000000     4.097000000     6.664000000
H    -3.212000000     4.963000000     6.919000000
C    -3.240000000     2.845000000     6.863000000
H    -4.242000000     2.967000000     7.266000000
C    -2.578000000     1.676000000     6.503000000
O    -3.277000000     0.555000000     6.449000000
C    -3.248000000    -0.318000000     5.391000000
C    -3.312000000    -1.679000000     5.562000000
H    -3.224000000    -2.131000000     6.547000000
C    -3.315000000    -2.548000000     4.475000000
O    -3.209000000    -3.894000000     4.774000000
C    -3.163000000    -4.856000000     3.802000000
C    -1.943000000    -5.047000000     3.156000000
H    -1.102000000    -4.429000000     3.458000000
C    -4.327000000    -5.503000000     3.368000000
H    -5.262000000    -5.218000000     3.844000000
C    -4.260000000    -6.374000000     2.324000000
H    -5.156000000    -6.890000000     1.992000000
C    -3.016000000    -6.716000000     1.742000000
H    -2.967000000    -7.513000000     1.004000000
C    -1.800000000    -6.020000000     2.131000000
O    -0.586000000    -6.331000000     1.577000000
C    -0.263000000    -6.041000000     0.297000000
C     0.906000000    -6.597000000    -0.193000000
H     1.486000000    -7.301000000     0.399000000
C     1.291000000    -6.155000000    -1.447000000
O     2.515000000    -6.619000000    -1.912000000
C     3.478000000    -5.788000000    -2.452000000
C     4.076000000    -4.862000000    -1.600000000
H     3.928000000    -4.952000000    -0.527000000
C     3.430000000    -5.581000000    -3.824000000
H     2.845000000    -6.209000000    -4.491000000
C     4.354000000    -4.763000000    -4.372000000
H     4.330000000    -4.767000000    -5.459000000
C     5.224000000    -3.975000000    -3.627000000
H     5.975000000    -3.293000000    -4.017000000
C     4.977000000    -3.960000000    -2.233000000
O     5.611000000    -3.073000000    -1.410000000
C     5.341000000    -1.671000000    -1.431000000
C     6.207000000    -0.810000000    -0.616000000
H     7.043000000    -1.253000000    -0.081000000
C     5.843000000     0.561000000    -0.568000000
O     6.603000000     1.437000000     0.255000000
C     6.313000000     2.731000000     0.560000000
C     6.965000000     3.785000000    -0.119000000
H     7.526000000     3.627000000    -1.037000000
C     6.626000000     5.104000000     0.255000000
H     7.081000000     5.904000000    -0.323000000
C     5.730000000     5.368000000     1.264000000
H     5.462000000     6.381000000     1.551000000
C     5.213000000     4.324000000     2.060000000
C     5.413000000     2.997000000     1.604000000
H     4.999000000     2.159000000     2.160000000
C     2.569000000    -0.161000000     0.836000000
H     3.485000000     0.371000000     1.080000000
C     1.498000000     0.598000000     0.386000000
H     1.555000000     1.682000000     0.444000000
C     0.343000000    -0.070000000    -0.021000000
H    -0.499000000     0.546000000    -0.353000000
C     0.175000000    -1.452000000     0.149000000
H    -0.733000000    -1.945000000    -0.188000000
C     1.248000000    -2.248000000     0.632000000
H     1.192000000    -3.328000000     0.736000000
C     2.446000000    -1.541000000     0.976000000
C     3.568000000    -2.277000000     1.702000000
O     3.508000000    -3.502000000     1.804000000
O     4.514000000    -1.584000000     2.162000000
O     7.775000000    -3.796000000     5.069000000
H     7.477000000    -3.714000000     4.163000000
H     8.413000000    -3.091000000     5.176000000
O     3.137000000    -0.970000000     4.523000000
H     2.879000000    -0.050000000     4.485000000
H     3.790000000    -1.065000000     3.829000000
O     2.458000000    -8.400000000     2.500000000
H     2.649000000    -7.463000000     2.542000000
H     1.507000000    -8.455000000     2.592000000
O     7.448000000    -5.373000000    -0.325000000
H     8.305000000    -5.059000000    -0.036000000
H     7.059000000    -4.625000000    -0.778000000
O    -0.132000000    -2.764000000     5.095000000
H    -0.279000000    -1.827000000     4.965000000
H     0.235000000    -3.066000000     4.264000000
O     4.375000000    -3.900000000     7.562000000
H     4.518000000    -3.618000000     6.659000000
H     3.959000000    -4.759000000     7.481000000
O     3.910000000    -3.492000000     4.622000000
H     3.538000000    -2.611000000     4.676000000
H     3.661000000    -3.804000000     3.753000000
O     6.162000000     1.691000000     5.230000000
H     6.994000000     1.447000000     5.634000000
H     5.878000000     0.901000000     4.770000000
O     6.289000000    -7.074000000     1.660000000
H     7.087000000    -6.834000000     2.132000000
H     6.332000000    -6.573000000     0.846000000
O     0.618000000    -6.589000000     5.244000000
H     0.808000000    -5.661000000     5.106000000
H     0.633000000    -6.698000000     6.195000000
O     6.391000000    -3.571000000     2.490000000
H     5.791000000    -2.859000000     2.264000000
H     6.248000000    -4.229000000     1.810000000
O     6.284000000    -1.073000000     3.934000000
H     5.832000000    -1.600000000     4.593000000
H     5.818000000    -1.258000000     3.118000000
O     1.937000000    -2.999000000     8.202000000
H     1.534000000    -3.867000000     8.164000000
H     2.855000000    -3.152000000     7.981000000
O     1.255000000    -4.256000000     2.940000000
H     2.006000000    -4.059000000     2.380000000
H     1.065000000    -5.178000000     2.770000000
O     9.431000000    -1.917000000    -0.123000000
H     9.402000000    -0.965000000    -0.026000000
H     9.991000000    -2.213000000     0.594000000
O     3.341000000    -5.992000000     2.003000000
H     4.128000000    -6.535000000     1.954000000
H     3.656000000    -5.100000000     1.854000000
O     0.655000000    -0.620000000     7.351000000
H     1.209000000    -1.401000000     7.364000000
H    -0.237000000    -0.960000000     7.288000000
O     8.670000000     0.876000000     3.854000000
H     8.868000000     0.367000000     4.640000000
H     7.942000000     0.409000000     3.443000000
O     5.767000000    -5.651000000     5.102000000
H     5.165000000    -4.980000000     4.779000000
H     6.630000000    -5.240000000     5.054000000
