215
-1443.70904
C    -3.221000000    -3.600000000    -1.325000000
H    -3.275000000    -3.229000000    -2.345000000
C    -3.546000000    -2.635000000    -0.345000000
C    -3.426000000    -2.980000000     0.991000000
H    -3.608000000    -2.248000000     1.775000000
C    -3.795000000    -1.227000000    -0.726000000
O    -4.179000000    -1.099000000    -2.118000000
H    -2.812000000    -0.769000000    -0.546000000
O    -4.776000000    -0.516000000     0.119000000
C    -4.453000000     0.773000000     0.607000000
C    -3.892000000     0.783000000     1.870000000
H    -3.744000000    -0.115000000     2.463000000
C    -3.533000000     2.043000000     2.407000000
O    -2.916000000     2.012000000     3.685000000
C    -3.443000000     3.179000000     1.566000000
C    -2.753000000     4.402000000     2.107000000
H    -3.139000000     5.281000000     1.587000000
C    -1.249000000     4.343000000     1.832000000
C    -0.788000000     4.926000000     0.678000000
H    -1.564000000     5.248000000    -0.012000000
H    -3.134000000     4.506000000     3.125000000
C    -3.822000000     3.077000000     0.200000000
H    -3.804000000     3.997000000    -0.378000000
C    -4.435000000     1.892000000    -0.242000000
C    -4.883000000     1.862000000    -1.707000000
H    -5.164000000     2.864000000    -2.038000000
H    -5.748000000     1.195000000    -1.685000000
C    -3.828000000     1.284000000    -2.694000000
C    -3.079000000     2.268000000    -3.388000000
H    -3.377000000     3.310000000    -3.309000000
C    -3.643000000    -0.111000000    -2.884000000
C    -2.675000000    -0.466000000    -3.863000000
H    -2.437000000    -1.517000000    -4.005000000
C    -1.775000000     0.450000000    -4.400000000
O    -0.700000000    -0.068000000    -5.077000000
C     0.607000000    -0.078000000    -4.362000000
C     1.342000000    -1.412000000    -4.611000000
C     2.647000000    -1.564000000    -4.183000000
H     3.199000000    -0.701000000    -3.819000000
C     0.596000000    -2.516000000    -5.004000000
H    -0.396000000    -2.363000000    -5.422000000
O     1.370000000     1.116000000    -4.814000000
H     0.431000000    -0.086000000    -3.276000000
C    -2.069000000     1.844000000    -4.258000000
C    -1.034000000     2.811000000    -4.912000000
H    -1.608000000     3.724000000    -5.082000000
H    -0.608000000     2.604000000    -5.896000000
C     0.165000000     3.092000000    -3.964000000
C     0.127000000     4.120000000    -3.028000000
H    -0.731000000     4.788000000    -3.013000000
C     1.329000000     2.262000000    -4.024000000
C     2.432000000     2.518000000    -3.214000000
H     3.352000000     1.940000000    -3.239000000
C     2.319000000     3.602000000    -2.272000000
O     3.344000000     3.608000000    -1.374000000
C     3.100000000     3.138000000    -0.037000000
C     4.169000000     2.203000000     0.515000000
C     5.112000000     1.612000000    -0.342000000
H     5.373000000     2.064000000    -1.295000000
C     3.889000000     1.619000000     1.730000000
H     3.046000000     1.988000000     2.309000000
O     2.788000000     4.127000000     0.957000000
H     2.235000000     2.460000000    -0.078000000
C     1.175000000     4.381000000    -2.166000000
C     1.037000000     5.416000000    -1.011000000
H     0.327000000     6.204000000    -1.270000000
H     1.948000000     6.015000000    -0.949000000
C     0.591000000     4.927000000     0.329000000
C     1.518000000     4.449000000     1.260000000
C     1.066000000     3.841000000     2.445000000
H     1.792000000     3.464000000     3.162000000
C    -0.310000000     3.724000000     2.715000000
O    -0.806000000     3.123000000     3.887000000
C    -1.468000000     1.849000000     3.790000000
H    -1.113000000     1.317000000     2.895000000
C    -1.167000000     0.966000000     5.005000000
C    -1.951000000    -0.133000000     5.372000000
H    -2.746000000    -0.631000000     4.824000000
C    -0.003000000     1.307000000     5.778000000
H     0.687000000     2.134000000     5.636000000
C     0.373000000     0.414000000     6.785000000
O     1.614000000     0.477000000     7.347000000
C    -0.362000000    -0.699000000     7.085000000
H     0.059000000    -1.448000000     7.750000000
C    -1.549000000    -0.927000000     6.449000000
O    -2.208000000    -2.141000000     6.654000000
C    -3.035000000    -2.791000000     5.770000000
C    -2.536000000    -3.446000000     4.650000000
H    -1.460000000    -3.361000000     4.520000000
C    -4.327000000    -2.850000000     6.046000000
H    -4.724000000    -2.335000000     6.917000000
C    -5.196000000    -3.477000000     5.172000000
H    -6.257000000    -3.410000000     5.397000000
C    -4.718000000    -4.079000000     4.046000000
H    -5.362000000    -4.644000000     3.376000000
C    -3.344000000    -4.053000000     3.737000000
O    -2.786000000    -4.630000000     2.591000000
C    -2.976000000    -4.233000000     1.353000000
C    -2.577000000    -5.116000000     0.431000000
H    -2.216000000    -6.064000000     0.822000000
C    -2.731000000    -4.865000000    -0.924000000
O    -2.508000000    -5.874000000    -1.819000000
C    -2.219000000    -5.698000000    -3.182000000
C    -0.941000000    -5.332000000    -3.588000000
H    -0.118000000    -5.233000000    -2.884000000
C    -3.314000000    -5.742000000    -4.003000000
H    -4.335000000    -5.945000000    -3.692000000
C    -3.128000000    -5.414000000    -5.352000000
H    -3.958000000    -5.399000000    -6.054000000
C    -1.865000000    -5.140000000    -5.795000000
H    -1.688000000    -4.864000000    -6.831000000
C    -0.748000000    -5.206000000    -4.955000000
O     0.512000000    -4.874000000    -5.425000000
C     1.159000000    -3.797000000    -4.890000000
C     2.495000000    -3.895000000    -4.589000000
H     2.922000000    -4.894000000    -4.613000000
C     3.276000000    -2.815000000    -4.176000000
O     4.541000000    -3.003000000    -3.718000000
C     5.434000000    -2.013000000    -3.493000000
C     5.707000000    -1.553000000    -2.200000000
H     5.324000000    -1.984000000    -1.279000000
C     5.940000000    -1.306000000    -4.592000000
H     5.767000000    -1.561000000    -5.635000000
C     6.742000000    -0.136000000    -4.376000000
H     7.326000000     0.288000000    -5.188000000
C     7.160000000     0.202000000    -3.087000000
H     7.874000000     0.994000000    -2.876000000
C     6.573000000    -0.467000000    -2.011000000
O     6.866000000    -0.002000000    -0.751000000
C     5.800000000     0.491000000     0.050000000
C     5.643000000    -0.054000000     1.339000000
H     6.189000000    -0.917000000     1.711000000
C     4.663000000     0.500000000     2.196000000
O     4.330000000    -0.050000000     3.434000000
C     4.086000000     0.505000000     4.617000000
C     4.752000000     1.725000000     5.002000000
H     5.597000000     2.124000000     4.446000000
C     4.429000000     2.377000000     6.170000000
H     4.999000000     3.265000000     6.433000000
C     3.363000000     1.932000000     6.951000000
H     2.916000000     2.510000000     7.755000000
C     2.670000000     0.789000000     6.588000000
C     3.053000000     0.061000000     5.464000000
H     2.559000000    -0.886000000     5.265000000
C     2.120000000    -1.456000000     0.327000000
H     2.965000000    -1.535000000     1.007000000
C     1.325000000    -0.306000000     0.273000000
H     1.550000000     0.505000000     0.960000000
C     0.295000000    -0.239000000    -0.653000000
H    -0.385000000     0.684000000    -0.747000000
C     0.028000000    -1.347000000    -1.402000000
H    -0.867000000    -1.368000000    -2.018000000
C     0.825000000    -2.502000000    -1.468000000
H     0.715000000    -3.314000000    -2.183000000
C     1.875000000    -2.590000000    -0.496000000
C     2.637000000    -3.807000000    -0.347000000
O     2.240000000    -4.937000000    -0.596000000
O     3.788000000    -3.831000000     0.132000000
O     3.863000000    -5.882000000     4.247000000
H     4.309000000    -5.038000000     4.313000000
H     3.656000000    -6.115000000     5.152000000
O     6.983000000    -3.260000000     3.403000000
H     6.054000000    -3.489000000     3.365000000
H     7.314000000    -3.732000000     4.167000000
O     8.258000000    -3.028000000    -1.722000000
H     7.696000000    -2.346000000    -1.352000000
H     9.103000000    -2.902000000    -1.289000000
O    -1.104000000    -6.888000000     3.232000000
H    -0.635000000    -6.062000000     3.343000000
H    -2.015000000    -6.676000000     3.433000000
O     6.098000000    -6.906000000     2.018000000
H     5.648000000    -6.442000000     2.724000000
H     6.449000000    -6.212000000     1.460000000
O     3.810000000    -6.900000000    -1.858000000
H     4.623000000    -7.080000000    -1.386000000
H     3.451000000    -6.123000000    -1.428000000
O     6.116000000    -7.960000000    -0.812000000
H     6.424000000    -7.633000000     0.034000000
H     5.811000000    -8.848000000    -0.628000000
O     1.884000000    -3.428000000     5.796000000
H     1.242000000    -3.942000000     6.286000000
H     1.392000000    -2.670000000     5.480000000
O     1.093000000    -2.143000000     3.355000000
H     0.628000000    -2.972000000     3.471000000
H     0.731000000    -1.777000000     2.548000000
O    -0.275000000    -8.240000000    -2.182000000
H    -0.134000000    -7.378000000    -1.791000000
H     0.344000000    -8.276000000    -2.912000000
O     0.733000000    -4.919000000     3.377000000
H     1.156000000    -5.467000000     2.716000000
H     1.432000000    -4.705000000     3.994000000
O     5.941000000    -5.618000000    -3.540000000
H     5.216000000    -6.242000000    -3.492000000
H     5.532000000    -4.765000000    -3.390000000
O     0.330000000    -6.684000000    -0.077000000
H     0.323000000    -6.468000000     0.856000000
H     1.117000000    -6.259000000    -0.415000000
O     2.828000000    -6.209000000     1.755000000
H     3.018000000    -5.765000000     0.929000000
H     3.570000000    -5.993000000     2.320000000
O     2.920000000    -9.025000000     2.018000000
H     3.229000000    -8.121000000     1.961000000
H     1.970000000    -8.949000000     2.100000000
O     8.781000000    -2.714000000     1.340000000
H     7.971000000    -2.801000000     1.842000000
H     9.285000000    -3.498000000     1.559000000
O     2.539000000    -9.405000000    -1.423000000
H     2.700000000    -8.513000000    -1.729000000
H     1.863000000    -9.311000000    -0.752000000
O     4.253000000    -3.579000000     2.773000000
H     3.411000000    -3.277000000     3.114000000
H     4.069000000    -3.827000000     1.867000000
O     6.514000000    -4.798000000    -0.293000000
H     5.637000000    -4.421000000    -0.361000000
H     7.063000000    -4.226000000    -0.831000000
