215
-1448.36584
C    -4.117000000     1.444000000     2.752000000
H    -4.034000000     2.000000000     1.821000000
C    -3.215000000     1.384000000     3.787000000
C    -3.297000000     0.535000000     4.931000000
H    -2.520000000     0.466000000     5.688000000
C    -1.870000000     2.146000000     3.477000000
O    -2.129000000     3.392000000     2.895000000
H    -1.526000000     1.511000000     2.647000000
O    -0.999000000     2.141000000     4.603000000
C     0.332000000     1.884000000     4.290000000
C     0.842000000     0.559000000     4.380000000
H     0.178000000    -0.197000000     4.793000000
C     2.186000000     0.279000000     4.096000000
O     2.632000000    -1.022000000     4.081000000
C     2.975000000     1.318000000     3.616000000
C     4.438000000     1.068000000     3.118000000
H     5.053000000     1.935000000     3.366000000
C     4.549000000     0.538000000     1.740000000
C     4.831000000     1.429000000     0.667000000
H     5.058000000     2.464000000     0.911000000
H     4.812000000     0.291000000     3.788000000
C     2.501000000     2.649000000     3.556000000
H     3.085000000     3.419000000     3.060000000
C     1.184000000     2.863000000     3.810000000
C     0.576000000     4.265000000     3.527000000
H     1.300000000     5.066000000     3.686000000
H    -0.104000000     4.444000000     4.362000000
C    -0.034000000     4.351000000     2.138000000
C     0.766000000     4.795000000     1.052000000
H     1.790000000     5.093000000     1.260000000
C    -1.287000000     3.914000000     1.925000000
C    -1.858000000     4.208000000     0.652000000
H    -2.875000000     3.850000000     0.511000000
C    -1.157000000     4.685000000    -0.377000000
O    -1.791000000     4.626000000    -1.594000000
C    -1.430000000     3.485000000    -2.443000000
C    -2.574000000     2.868000000    -3.234000000
C    -2.331000000     2.263000000    -4.485000000
H    -1.314000000     2.248000000    -4.869000000
C    -3.861000000     2.785000000    -2.788000000
H    -4.043000000     3.124000000    -1.771000000
O    -0.362000000     3.763000000    -3.335000000
H    -1.168000000     2.743000000    -1.674000000
C     0.183000000     4.965000000    -0.170000000
C     1.067000000     5.359000000    -1.323000000
H     1.939000000     5.793000000    -0.830000000
H     0.682000000     6.028000000    -2.096000000
C     1.629000000     4.109000000    -1.986000000
C     2.914000000     3.618000000    -1.699000000
H     3.400000000     4.087000000    -0.847000000
C     0.910000000     3.384000000    -2.968000000
C     1.456000000     2.243000000    -3.556000000
H     0.876000000     1.585000000    -4.198000000
C     2.785000000     1.830000000    -3.184000000
O     3.152000000     0.575000000    -3.627000000
C     3.019000000    -0.486000000    -2.707000000
C     2.499000000    -1.764000000    -3.262000000
C     1.404000000    -1.689000000    -4.129000000
H     0.930000000    -0.730000000    -4.323000000
C     2.944000000    -3.025000000    -2.896000000
H     3.672000000    -3.136000000    -2.096000000
O     4.331000000    -0.763000000    -2.209000000
H     2.432000000    -0.109000000    -1.856000000
C     3.537000000     2.533000000    -2.268000000
C     4.899000000     2.002000000    -1.798000000
H     5.534000000     2.845000000    -1.518000000
H     5.420000000     1.515000000    -2.625000000
C     4.798000000     0.987000000    -0.678000000
C     4.572000000    -0.338000000    -0.924000000
C     4.423000000    -1.225000000     0.111000000
H     4.207000000    -2.276000000    -0.066000000
C     4.421000000    -0.856000000     1.424000000
O     3.978000000    -1.721000000     2.386000000
C     2.631000000    -1.656000000     2.787000000
H     2.166000000    -0.961000000     2.073000000
C     1.987000000    -2.959000000     2.837000000
C     0.717000000    -3.081000000     3.485000000
H     0.269000000    -2.254000000     4.029000000
C     2.540000000    -4.048000000     2.177000000
H     3.459000000    -4.033000000     1.597000000
C     1.781000000    -5.195000000     1.958000000
O     2.215000000    -6.211000000     1.163000000
C     0.496000000    -5.243000000     2.469000000
H    -0.088000000    -6.155000000     2.376000000
C    -0.033000000    -4.243000000     3.296000000
O    -1.359000000    -4.375000000     3.682000000
C    -1.911000000    -3.849000000     4.824000000
C    -2.973000000    -2.966000000     4.802000000
H    -3.382000000    -2.657000000     3.843000000
C    -1.423000000    -4.240000000     6.057000000
H    -0.593000000    -4.934000000     6.163000000
C    -1.928000000    -3.681000000     7.268000000
H    -1.525000000    -4.087000000     8.193000000
C    -2.974000000    -2.756000000     7.211000000
H    -3.371000000    -2.307000000     8.119000000
C    -3.394000000    -2.302000000     5.980000000
O    -4.340000000    -1.300000000     5.897000000
C    -4.364000000    -0.369000000     4.921000000
C    -5.367000000    -0.275000000     3.949000000
H    -6.247000000    -0.905000000     4.048000000
C    -5.195000000     0.520000000     2.862000000
O    -6.187000000     0.375000000     1.854000000
C    -6.388000000     1.310000000     0.852000000
C    -6.091000000     1.026000000    -0.457000000
H    -5.737000000     0.013000000    -0.630000000
C    -6.750000000     2.702000000     1.177000000
H    -6.754000000     2.984000000     2.227000000
C    -7.007000000     3.603000000     0.082000000
H    -7.337000000     4.614000000     0.306000000
C    -6.859000000     3.139000000    -1.230000000
H    -7.156000000     3.802000000    -2.039000000
C    -6.293000000     1.946000000    -1.509000000
O    -5.948000000     1.577000000    -2.797000000
C    -4.801000000     2.015000000    -3.428000000
C    -4.537000000     1.366000000    -4.609000000
H    -5.243000000     0.683000000    -5.075000000
C    -3.325000000     1.576000000    -5.165000000
O    -3.117000000     0.943000000    -6.344000000
C    -1.981000000     0.353000000    -6.707000000
C    -1.643000000    -0.856000000    -6.141000000
H    -2.239000000    -1.296000000    -5.346000000
C    -1.205000000     0.862000000    -7.742000000
H    -1.440000000     1.810000000    -8.221000000
C    -0.027000000     0.223000000    -8.129000000
H     0.646000000     0.561000000    -8.913000000
C     0.391000000    -0.939000000    -7.463000000
H     1.267000000    -1.527000000    -7.728000000
C    -0.429000000    -1.511000000    -6.530000000
O    -0.040000000    -2.657000000    -5.859000000
C     0.929000000    -2.739000000    -4.857000000
C     1.574000000    -3.980000000    -4.687000000
H     1.311000000    -4.824000000    -5.319000000
C     2.503000000    -4.160000000    -3.620000000
O     3.032000000    -5.440000000    -3.414000000
C     3.486000000    -5.829000000    -2.192000000
C     4.848000000    -6.201000000    -2.031000000
H     5.485000000    -6.353000000    -2.898000000
C     5.249000000    -6.687000000    -0.786000000
H     6.190000000    -7.231000000    -0.763000000
C     4.428000000    -6.610000000     0.345000000
H     4.815000000    -6.924000000     1.311000000
C     3.133000000    -6.226000000     0.153000000
C     2.653000000    -5.813000000    -1.071000000
H     1.600000000    -5.547000000    -1.126000000
C    -1.901000000    -1.481000000     0.910000000
H    -2.079000000    -2.047000000     1.821000000
C    -0.857000000    -0.544000000     0.987000000
H    -0.198000000    -0.445000000     1.845000000
C    -0.546000000     0.184000000    -0.174000000
H     0.279000000     0.957000000    -0.211000000
C    -1.319000000     0.053000000    -1.254000000
H    -1.064000000     0.556000000    -2.183000000
C    -2.326000000    -0.899000000    -1.364000000
H    -2.975000000    -0.976000000    -2.232000000
C    -2.647000000    -1.679000000    -0.240000000
C    -3.630000000    -2.785000000    -0.264000000
O    -4.087000000    -3.072000000    -1.312000000
O    -4.001000000    -3.349000000     0.763000000
O    -3.035000000    -5.537000000     1.955000000
H    -3.254000000    -4.768000000     1.429000000
H    -2.544000000    -5.187000000     2.699000000
O    -5.698000000    -7.543000000    -2.699000000
H    -5.960000000    -8.293000000    -2.164000000
H    -5.930000000    -6.779000000    -2.171000000
O    -8.538000000    -3.924000000     0.143000000
H    -8.716000000    -3.144000000     0.668000000
H    -8.085000000    -4.518000000     0.742000000
O    -5.687000000    -5.272000000    -1.028000000
H    -6.058000000    -5.281000000    -0.146000000
H    -5.143000000    -4.485000000    -1.052000000
O    -8.100000000    -1.792000000     2.105000000
H    -8.882000000    -1.435000000     2.526000000
H    -7.426000000    -1.128000000     2.250000000
O    -6.979000000    -6.181000000     1.563000000
H    -6.641000000    -5.617000000     2.259000000
H    -6.825000000    -7.071000000     1.881000000
O    -9.500000000    -1.903000000    -2.200000000
H    -8.579000000    -1.889000000    -1.939000000
H    -9.810000000    -1.013000000    -2.034000000
O    -3.259000000    -6.044000000    -3.853000000
H    -2.595000000    -6.598000000    -4.263000000
H    -3.934000000    -6.657000000    -3.560000000
O    -1.502000000    -8.220000000    -1.723000000
H    -1.348000000    -7.277000000    -1.674000000
H    -2.340000000    -8.349000000    -1.279000000
O    -7.873000000    -0.075000000    -4.239000000
H    -7.407000000     0.217000000    -3.455000000
H    -8.469000000    -0.754000000    -3.924000000
O    -5.879000000    -3.465000000     2.594000000
H    -6.625000000    -2.885000000     2.440000000
H    -5.269000000    -3.264000000     1.885000000
O    -6.842000000    -2.433000000    -1.909000000
H    -7.119000000    -2.942000000    -1.147000000
H    -5.900000000    -2.592000000    -1.973000000
O    -9.534000000    -4.776000000    -2.448000000
H   -10.158000000    -4.109000000    -2.736000000
H    -9.024000000    -4.346000000    -1.762000000
O    -1.374000000    -5.484000000    -1.912000000
H    -1.325000000    -4.612000000    -1.521000000
H    -2.148000000    -5.451000000    -2.475000000
O    -4.103000000    -7.563000000     0.292000000
H    -3.611000000    -6.898000000     0.774000000
H    -4.526000000    -7.080000000    -0.418000000
O    -4.392000000    -2.892000000    -6.619000000
H    -5.191000000    -2.369000000    -6.692000000
H    -4.354000000    -3.143000000    -5.696000000
O    -7.224000000    -4.536000000     4.389000000
H    -6.534000000    -4.238000000     3.796000000
H    -7.047000000    -4.079000000     5.211000000
O    -4.330000000    -3.531000000    -3.939000000
H    -4.348000000    -3.251000000    -3.024000000
H    -3.993000000    -4.426000000    -3.909000000
O    -2.780000000    -7.885000000     3.305000000
H    -2.257000000    -8.498000000     2.788000000
H    -2.906000000    -7.133000000     2.727000000
