215
-1449.34307
C    -4.387000000     0.850000000     2.181000000
H    -4.303000000     1.611000000     1.410000000
C    -3.374000000     0.774000000     3.089000000
C    -3.351000000    -0.222000000     3.978000000
H    -2.518000000    -0.416000000     4.649000000
C    -2.274000000     1.809000000     3.119000000
O    -2.606000000     3.169000000     2.865000000
H    -1.653000000     1.428000000     2.294000000
O    -1.548000000     1.740000000     4.373000000
C    -0.156000000     1.691000000     4.301000000
C     0.421000000     0.449000000     4.455000000
H    -0.192000000    -0.348000000     4.867000000
C     1.769000000     0.233000000     4.138000000
O     2.280000000    -1.008000000     4.185000000
C     2.632000000     1.339000000     3.751000000
C     4.056000000     1.025000000     3.469000000
H     4.669000000     1.917000000     3.614000000
C     4.160000000     0.561000000     2.007000000
C     4.567000000     1.497000000     1.067000000
H     4.621000000     2.556000000     1.308000000
H     4.471000000     0.293000000     4.164000000
C     2.005000000     2.556000000     3.581000000
H     2.674000000     3.353000000     3.268000000
C     0.606000000     2.786000000     3.850000000
C    -0.033000000     4.126000000     3.739000000
H     0.827000000     4.785000000     3.879000000
H    -0.786000000     4.317000000     4.507000000
C    -0.564000000     4.332000000     2.393000000
C     0.409000000     4.683000000     1.381000000
H     1.468000000     4.742000000     1.620000000
C    -1.899000000     4.044000000     2.081000000
C    -2.222000000     4.140000000     0.789000000
H    -3.259000000     3.950000000     0.523000000
C    -1.322000000     4.548000000    -0.192000000
O    -1.753000000     4.441000000    -1.518000000
C    -1.196000000     3.426000000    -2.391000000
C    -2.374000000     2.844000000    -3.160000000
C    -2.102000000     2.207000000    -4.348000000
H    -1.054000000     2.057000000    -4.595000000
C    -3.716000000     2.926000000    -2.740000000
H    -4.004000000     3.482000000    -1.851000000
O    -0.111000000     3.911000000    -3.264000000
H    -0.727000000     2.631000000    -1.793000000
C    -0.013000000     4.816000000     0.035000000
C     0.946000000     5.344000000    -1.032000000
H     1.667000000     6.068000000    -0.646000000
H     0.335000000     5.901000000    -1.746000000
C     1.706000000     4.181000000    -1.702000000
C     2.908000000     3.669000000    -1.146000000
H     3.292000000     4.058000000    -0.206000000
C     1.150000000     3.588000000    -2.795000000
C     1.749000000     2.478000000    -3.427000000
H     1.253000000     1.909000000    -4.210000000
C     3.009000000     2.034000000    -2.919000000
O     3.479000000     0.880000000    -3.413000000
C     3.317000000    -0.413000000    -2.675000000
C     3.149000000    -1.570000000    -3.665000000
C     2.478000000    -1.360000000    -4.873000000
H     2.422000000    -0.342000000    -5.251000000
C     3.372000000    -2.846000000    -3.184000000
H     3.960000000    -3.006000000    -2.283000000
O     4.637000000    -0.580000000    -1.963000000
H     2.512000000    -0.388000000    -1.926000000
C     3.632000000     2.706000000    -1.821000000
C     4.993000000     2.276000000    -1.289000000
H     5.481000000     3.160000000    -0.874000000
H     5.636000000     1.918000000    -2.096000000
C     4.756000000     1.176000000    -0.256000000
C     4.739000000    -0.140000000    -0.651000000
C     4.539000000    -1.066000000     0.330000000
H     4.419000000    -2.104000000     0.030000000
C     4.208000000    -0.790000000     1.638000000
O     3.787000000    -1.745000000     2.563000000
C     2.375000000    -1.627000000     2.867000000
H     1.885000000    -0.947000000     2.154000000
C     1.677000000    -3.022000000     2.790000000
C     0.817000000    -3.487000000     3.777000000
H     0.553000000    -2.841000000     4.611000000
C     2.076000000    -3.931000000     1.807000000
H     2.747000000    -3.608000000     1.015000000
C     1.512000000    -5.266000000     1.775000000
O     1.927000000    -6.282000000     0.916000000
C     0.605000000    -5.669000000     2.722000000
H     0.273000000    -6.703000000     2.734000000
C     0.353000000    -4.762000000     3.791000000
O    -0.453000000    -5.145000000     4.788000000
C    -1.288000000    -4.310000000     5.509000000
C    -2.240000000    -3.533000000     4.795000000
H    -2.203000000    -3.491000000     3.710000000
C    -1.394000000    -4.357000000     6.967000000
H    -0.631000000    -4.896000000     7.522000000
C    -2.393000000    -3.644000000     7.590000000
H    -2.423000000    -3.596000000     8.675000000
C    -3.288000000    -2.851000000     6.866000000
H    -4.102000000    -2.353000000     7.387000000
C    -3.240000000    -2.857000000     5.452000000
O    -4.321000000    -2.273000000     4.869000000
C    -4.374000000    -1.201000000     3.997000000
C    -5.456000000    -1.052000000     3.099000000
H    -6.281000000    -1.753000000     3.006000000
C    -5.449000000    -0.081000000     2.130000000
O    -6.392000000    -0.029000000     1.151000000
C    -6.556000000     1.070000000     0.411000000
C    -6.248000000     1.037000000    -0.979000000
H    -5.813000000     0.157000000    -1.447000000
C    -7.101000000     2.225000000     0.971000000
H    -7.396000000     2.199000000     2.016000000
C    -7.200000000     3.379000000     0.177000000
H    -7.697000000     4.227000000     0.642000000
C    -6.862000000     3.426000000    -1.145000000
H    -6.966000000     4.359000000    -1.692000000
C    -6.311000000     2.251000000    -1.706000000
O    -6.017000000     2.313000000    -3.035000000
C    -4.759000000     2.312000000    -3.435000000
C    -4.467000000     1.559000000    -4.606000000
H    -5.231000000     1.070000000    -5.204000000
C    -3.110000000     1.513000000    -5.026000000
O    -2.850000000     0.698000000    -6.114000000
C    -1.568000000     0.401000000    -6.618000000
C    -0.989000000    -0.855000000    -6.350000000
H    -1.552000000    -1.474000000    -5.657000000
C    -0.928000000     1.359000000    -7.327000000
H    -1.371000000     2.346000000    -7.433000000
C     0.306000000     1.066000000    -7.885000000
H     0.761000000     1.827000000    -8.514000000
C     0.997000000    -0.166000000    -7.705000000
H     1.899000000    -0.492000000    -8.216000000
C     0.329000000    -1.079000000    -6.808000000
O     0.995000000    -2.199000000    -6.623000000
C     1.839000000    -2.410000000    -5.531000000
C     2.095000000    -3.710000000    -5.034000000
H     1.630000000    -4.600000000    -5.451000000
C     2.977000000    -3.907000000    -3.963000000
O     3.294000000    -5.200000000    -3.589000000
C     3.578000000    -5.625000000    -2.276000000
C     4.884000000    -5.802000000    -1.874000000
H     5.653000000    -5.525000000    -2.591000000
C     5.241000000    -6.161000000    -0.563000000
H     6.286000000    -6.161000000    -0.261000000
C     4.222000000    -6.402000000     0.309000000
H     4.477000000    -6.613000000     1.345000000
C     2.900000000    -6.186000000    -0.040000000
C     2.563000000    -5.888000000    -1.378000000
H     1.568000000    -5.834000000    -1.812000000
C    -1.885000000    -1.367000000     0.736000000
H    -2.420000000    -1.825000000     1.564000000
C    -0.782000000    -0.593000000     1.006000000
H    -0.480000000    -0.730000000     2.042000000
C    -0.177000000     0.127000000     0.034000000
H     0.769000000     0.679000000     0.262000000
C    -0.637000000     0.008000000    -1.284000000
H    -0.123000000     0.571000000    -2.058000000
C    -1.744000000    -0.755000000    -1.600000000
H    -2.120000000    -0.764000000    -2.620000000
C    -2.367000000    -1.473000000    -0.560000000
C    -3.482000000    -2.415000000    -0.965000000
O    -3.746000000    -2.641000000    -2.105000000
O    -4.017000000    -3.151000000    -0.155000000
O    -3.531000000    -5.150000000     1.458000000
H    -3.658000000    -4.417000000     0.856000000
H    -3.179000000    -5.852000000     0.910000000
O    -4.767000000    -6.411000000    -4.845000000
H    -4.667000000    -7.332000000    -4.603000000
H    -4.767000000    -5.944000000    -4.009000000
O    -4.437000000    -9.296000000    -0.226000000
H    -5.298000000    -9.115000000     0.152000000
H    -4.092000000    -8.434000000    -0.459000000
O    -9.055000000    -0.975000000    -1.189000000
H    -9.600000000    -1.454000000    -1.813000000
H    -8.209000000    -1.423000000    -1.216000000
O    -7.397000000    -3.577000000    -1.776000000
H    -8.022000000    -4.237000000    -1.476000000
H    -6.851000000    -3.399000000    -1.010000000
O    -1.855000000    -5.757000000    -4.401000000
H    -2.800000000    -5.799000000    -4.548000000
H    -1.703000000    -4.870000000    -4.074000000
O    -5.821000000    -2.226000000    -3.729000000
H    -6.546000000    -2.819000000    -3.533000000
H    -5.166000000    -2.419000000    -3.059000000
O    -2.774000000    -6.968000000    -1.095000000
H    -1.922000000    -6.980000000    -1.531000000
H    -3.174000000    -6.143000000    -1.373000000
O    -7.264000000    -0.224000000    -5.052000000
H    -6.717000000    -0.651000000    -4.393000000
H    -8.153000000    -0.286000000    -4.702000000
O    -6.312000000    -6.208000000    -0.676000000
H    -6.129000000    -6.710000000     0.118000000
H    -7.216000000    -6.431000000    -0.898000000
O    -4.643000000    -5.135000000    -2.565000000
H    -5.227000000    -5.438000000    -1.870000000
H    -4.373000000    -4.260000000    -2.286000000
O    -1.603000000    -3.253000000    -3.442000000
H    -0.869000000    -2.761000000    -3.073000000
H    -2.363000000    -2.964000000    -2.937000000
O    -8.640000000    -1.846000000     1.678000000
H    -7.908000000    -2.440000000     1.514000000
H    -8.863000000    -1.498000000     0.815000000
O   -10.128000000    -2.363000000    -3.130000000
H    -9.341000000    -2.756000000    -3.509000000
H   -10.800000000    -3.038000000    -3.220000000
O    -7.861000000    -4.880000000     4.001000000
H    -7.286000000    -5.168000000     3.293000000
H    -8.693000000    -5.321000000     3.829000000
O    -3.742000000    -3.405000000    -5.634000000
H    -4.434000000    -3.045000000    -5.079000000
H    -3.003000000    -3.536000000    -5.040000000
O    -5.920000000    -6.360000000     2.438000000
H    -5.519000000    -6.629000000     3.264000000
H    -5.240000000    -5.852000000     1.995000000
O    -0.527000000    -7.336000000    -2.635000000
H    -0.379000000    -8.208000000    -3.000000000
H    -0.972000000    -6.856000000    -3.334000000
O    -6.419000000    -3.665000000     0.757000000
H    -5.525000000    -3.402000000     0.537000000
H    -6.448000000    -4.601000000     0.562000000
