215
-1455.87215
C    -3.699000000     0.653000000     2.924000000
H    -3.966000000     1.356000000     2.140000000
C    -2.415000000     0.605000000     3.486000000
C    -2.080000000    -0.502000000     4.290000000
H    -1.114000000    -0.533000000     4.788000000
C    -1.437000000     1.725000000     3.281000000
O    -2.110000000     3.013000000     3.051000000
H    -0.838000000     1.446000000     2.401000000
O    -0.585000000     1.935000000     4.412000000
C     0.774000000     2.039000000     4.186000000
C     1.507000000     0.863000000     4.289000000
H     1.059000000    -0.028000000     4.720000000
C     2.754000000     0.782000000     3.727000000
O     3.367000000    -0.536000000     3.864000000
C     3.391000000     1.899000000     3.189000000
C     4.748000000     1.669000000     2.455000000
H     5.192000000     2.651000000     2.279000000
C     4.550000000     1.109000000     1.066000000
C     4.490000000     2.000000000     0.034000000
H     4.475000000     3.076000000     0.184000000
H     5.444000000     1.051000000     3.026000000
C     2.632000000     3.086000000     3.062000000
H     3.106000000     3.870000000     2.477000000
C     1.306000000     3.118000000     3.507000000
C     0.474000000     4.368000000     3.387000000
H     1.178000000     5.202000000     3.406000000
H    -0.162000000     4.551000000     4.256000000
C    -0.351000000     4.395000000     2.112000000
C     0.172000000     4.968000000     0.911000000
H     1.140000000     5.457000000     0.980000000
C    -1.600000000     3.782000000     2.066000000
C    -2.324000000     3.813000000     0.910000000
H    -3.196000000     3.186000000     0.745000000
C    -1.803000000     4.461000000    -0.231000000
O    -2.460000000     4.214000000    -1.506000000
C    -2.109000000     3.070000000    -2.170000000
C    -3.272000000     2.297000000    -2.734000000
C    -3.177000000     1.540000000    -3.900000000
H    -2.248000000     1.621000000    -4.459000000
C    -4.427000000     2.202000000    -2.000000000
H    -4.520000000     2.858000000    -1.139000000
O    -1.181000000     3.466000000    -3.224000000
H    -1.669000000     2.398000000    -1.418000000
C    -0.515000000     4.977000000    -0.255000000
C     0.166000000     5.338000000    -1.491000000
H     0.899000000     6.106000000    -1.237000000
H    -0.587000000     5.827000000    -2.113000000
C     0.920000000     4.258000000    -2.261000000
C     2.306000000     3.996000000    -2.088000000
H     2.918000000     4.594000000    -1.417000000
C     0.169000000     3.363000000    -3.062000000
C     0.805000000     2.354000000    -3.844000000
H     0.254000000     1.673000000    -4.489000000
C     2.152000000     2.106000000    -3.608000000
O     2.556000000     0.948000000    -4.150000000
C     2.646000000    -0.157000000    -3.237000000
C     2.129000000    -1.412000000    -3.936000000
C     1.450000000    -1.334000000    -5.158000000
H     1.376000000    -0.448000000    -5.783000000
C     2.141000000    -2.627000000    -3.332000000
H     2.793000000    -2.735000000    -2.469000000
O     4.039000000    -0.292000000    -2.777000000
H     1.961000000    -0.100000000    -2.378000000
C     2.917000000     2.921000000    -2.776000000
C     4.356000000     2.528000000    -2.457000000
H     4.962000000     3.369000000    -2.113000000
H     4.869000000     2.150000000    -3.344000000
C     4.390000000     1.502000000    -1.274000000
C     4.153000000     0.198000000    -1.476000000
C     4.284000000    -0.760000000    -0.481000000
H     4.050000000    -1.801000000    -0.686000000
C     4.533000000    -0.263000000     0.828000000
O     4.639000000    -1.231000000     1.829000000
C     3.486000000    -1.417000000     2.644000000
H     2.625000000    -1.184000000     2.000000000
C     3.167000000    -2.815000000     2.959000000
C     2.527000000    -3.184000000     4.178000000
H     2.344000000    -2.433000000     4.943000000
C     3.444000000    -3.798000000     1.999000000
H     3.761000000    -3.468000000     1.013000000
C     2.972000000    -5.099000000     2.203000000
O     3.050000000    -6.012000000     1.173000000
C     2.364000000    -5.408000000     3.378000000
H     2.014000000    -6.431000000     3.497000000
C     2.136000000    -4.506000000     4.404000000
O     1.595000000    -4.864000000     5.601000000
C     0.555000000    -4.178000000     6.131000000
C    -0.453000000    -3.838000000     5.330000000
H    -0.537000000    -4.121000000     4.284000000
C     0.526000000    -3.843000000     7.457000000
H     1.289000000    -4.311000000     8.074000000
C    -0.440000000    -3.004000000     8.002000000
H    -0.368000000    -2.685000000     9.039000000
C    -1.420000000    -2.513000000     7.111000000
H    -2.259000000    -1.940000000     7.499000000
C    -1.441000000    -2.938000000     5.802000000
O    -2.586000000    -2.752000000     5.055000000
C    -2.922000000    -1.579000000     4.373000000
C    -4.133000000    -1.552000000     3.763000000
H    -4.748000000    -2.447000000     3.800000000
C    -4.586000000    -0.425000000     3.059000000
O    -5.952000000    -0.382000000     2.639000000
C    -6.524000000     0.520000000     1.832000000
C    -6.228000000     0.483000000     0.453000000
H    -5.539000000    -0.295000000     0.131000000
C    -7.324000000     1.455000000     2.379000000
H    -7.542000000     1.467000000     3.444000000
C    -7.803000000     2.479000000     1.599000000
H    -8.312000000     3.297000000     2.102000000
C    -7.581000000     2.505000000     0.268000000
H    -7.814000000     3.392000000    -0.314000000
C    -6.776000000     1.493000000    -0.302000000
O    -6.591000000     1.488000000    -1.708000000
C    -5.438000000     1.356000000    -2.431000000
C    -5.350000000     0.577000000    -3.600000000
H    -6.125000000    -0.077000000    -3.991000000
C    -4.219000000     0.758000000    -4.401000000
O    -4.079000000     0.095000000    -5.617000000
C    -2.975000000    -0.030000000    -6.320000000
C    -2.037000000    -1.012000000    -6.070000000
H    -2.247000000    -1.723000000    -5.275000000
C    -2.836000000     0.879000000    -7.308000000
H    -3.604000000     1.627000000    -7.488000000
C    -1.695000000     0.817000000    -8.174000000
H    -1.622000000     1.513000000    -9.005000000
C    -0.763000000    -0.231000000    -8.051000000
H     0.051000000    -0.350000000    -8.762000000
C    -0.940000000    -1.128000000    -6.906000000
O    -0.088000000    -2.174000000    -6.791000000
C     0.689000000    -2.368000000    -5.648000000
C     0.736000000    -3.606000000    -4.988000000
H     0.166000000    -4.431000000    -5.407000000
C     1.519000000    -3.737000000    -3.843000000
O     1.519000000    -5.036000000    -3.327000000
C     2.525000000    -5.382000000    -2.421000000
C     3.875000000    -5.541000000    -2.871000000
H     4.077000000    -5.500000000    -3.939000000
C     4.933000000    -5.753000000    -1.939000000
H     5.965000000    -5.608000000    -2.248000000
C     4.675000000    -5.948000000    -0.585000000
H     5.479000000    -6.018000000     0.144000000
C     3.387000000    -5.734000000    -0.134000000
C     2.333000000    -5.417000000    -1.052000000
H     1.317000000    -5.257000000    -0.700000000
C    -0.582000000    -2.411000000    -0.069000000
H    -0.533000000    -3.325000000     0.517000000
C     0.150000000    -1.279000000     0.316000000
H     0.574000000    -1.162000000     1.310000000
C     0.077000000    -0.153000000    -0.531000000
H     0.377000000     0.854000000    -0.100000000
C    -0.654000000    -0.216000000    -1.646000000
H    -0.782000000     0.679000000    -2.250000000
C    -1.279000000    -1.403000000    -2.104000000
H    -1.854000000    -1.442000000    -3.026000000
C    -1.262000000    -2.517000000    -1.260000000
C    -1.970000000    -3.806000000    -1.633000000
O    -2.316000000    -4.100000000    -2.760000000
O    -2.166000000    -4.563000000    -0.703000000
O    -1.654000000    -5.373000000     1.847000000
H    -1.777000000    -5.154000000     0.923000000
H    -0.704000000    -5.417000000     1.959000000
O    -2.820000000    -9.109000000    -2.294000000
H    -3.602000000    -9.648000000    -2.176000000
H    -2.863000000    -8.468000000    -1.584000000
O    -6.534000000    -5.490000000    -3.226000000
H    -5.612000000    -5.741000000    -3.278000000
H    -6.676000000    -5.288000000    -2.302000000
O    -1.050000000    -4.855000000    -7.920000000
H    -1.398000000    -4.324000000    -7.204000000
H    -1.823000000    -5.248000000    -8.325000000
O    -2.091000000    -7.105000000    -4.981000000
H    -1.481000000    -7.064000000    -4.245000000
H    -2.059000000    -8.018000000    -5.268000000
O    -4.973000000    -3.048000000    -2.259000000
H    -4.214000000    -2.889000000    -2.820000000
H    -5.321000000    -3.888000000    -2.559000000
O     1.037000000    -8.754000000    -0.895000000
H     0.508000000    -8.210000000    -1.478000000
H     0.730000000    -8.531000000    -0.016000000
O    -5.500000000    -2.274000000    -5.394000000
H    -5.175000000    -1.406000000    -5.633000000
H    -5.233000000    -2.837000000    -6.121000000
O    -7.090000000    -2.290000000    -0.855000000
H    -6.382000000    -2.457000000    -1.477000000
H    -7.836000000    -2.044000000    -1.401000000
O    -3.528000000    -6.885000000    -0.275000000
H    -3.928000000    -6.176000000    -0.778000000
H    -2.645000000    -6.571000000    -0.078000000
O    -4.032000000    -5.939000000    -3.121000000
H    -3.652000000    -6.578000000    -3.724000000
H    -3.362000000    -5.261000000    -3.036000000
O    -7.244000000    -7.661000000    -0.405000000
H    -6.825000000    -6.802000000    -0.459000000
H    -6.650000000    -8.183000000     0.134000000
O    -4.335000000    -3.579000000    -7.795000000
H    -3.685000000    -3.823000000    -7.136000000
H    -3.862000000    -3.005000000    -8.397000000
O    -6.404000000    -4.999000000    -0.455000000
H    -5.645000000    -5.127000000     0.114000000
H    -6.618000000    -4.070000000    -0.364000000
O    -6.177000000    -4.734000000     3.445000000
H    -5.507000000    -4.346000000     2.882000000
H    -5.921000000    -5.653000000     3.522000000
O    -2.631000000    -4.287000000    -5.815000000
H    -2.642000000    -3.943000000    -4.922000000
H    -2.259000000    -5.165000000    -5.728000000
O    -3.459000000    -6.083000000     4.061000000
H    -4.039000000    -6.706000000     3.623000000
H    -2.747000000    -5.941000000     3.438000000
O    -0.552000000    -6.683000000    -2.206000000
H     0.095000000    -6.248000000    -2.762000000
H    -1.121000000    -5.976000000    -1.902000000
O    -4.407000000    -4.138000000     1.224000000
H    -3.596000000    -4.573000000     1.489000000
H    -4.122000000    -3.440000000     0.634000000
