215
-1440.76782
C    -3.841000000     0.748000000     2.937000000
H    -4.150000000     1.478000000     2.193000000
C    -2.617000000     0.802000000     3.640000000
C    -2.316000000    -0.183000000     4.608000000
H    -1.348000000    -0.204000000     5.103000000
C    -1.580000000     1.928000000     3.347000000
O    -2.068000000     3.266000000     3.017000000
H    -0.971000000     1.527000000     2.524000000
O    -0.733000000     2.162000000     4.449000000
C     0.589000000     2.212000000     4.178000000
C     1.338000000     1.057000000     4.447000000
H     0.869000000     0.179000000     4.884000000
C     2.681000000     0.955000000     4.029000000
O     3.179000000    -0.299000000     4.142000000
C     3.191000000     1.906000000     3.104000000
C     4.615000000     1.824000000     2.637000000
H     5.168000000     2.766000000     2.619000000
C     4.475000000     1.238000000     1.267000000
C     4.381000000     2.100000000     0.107000000
H     4.476000000     3.178000000     0.214000000
H     5.178000000     1.203000000     3.337000000
C     2.392000000     3.069000000     2.847000000
H     2.841000000     3.775000000     2.154000000
C     1.108000000     3.237000000     3.443000000
C     0.378000000     4.562000000     3.203000000
H     1.018000000     5.445000000     3.147000000
H    -0.251000000     4.855000000     4.046000000
C    -0.393000000     4.599000000     1.885000000
C     0.099000000     5.051000000     0.681000000
H     1.046000000     5.575000000     0.777000000
C    -1.571000000     3.866000000     1.891000000
C    -2.335000000     3.847000000     0.683000000
H    -3.317000000     3.384000000     0.734000000
C    -1.777000000     4.289000000    -0.540000000
O    -2.513000000     3.991000000    -1.657000000
C    -2.066000000     2.912000000    -2.483000000
C    -3.164000000     1.957000000    -3.061000000
C    -3.011000000     1.324000000    -4.358000000
H    -2.100000000     1.492000000    -4.925000000
C    -4.368000000     1.770000000    -2.506000000
H    -4.619000000     2.352000000    -1.624000000
O    -1.237000000     3.415000000    -3.521000000
H    -1.473000000     2.258000000    -1.828000000
C    -0.554000000     4.879000000    -0.550000000
C     0.143000000     5.390000000    -1.817000000
H     0.886000000     6.134000000    -1.523000000
H    -0.592000000     5.927000000    -2.419000000
C     0.854000000     4.232000000    -2.526000000
C     2.194000000     3.945000000    -2.204000000
H     2.671000000     4.547000000    -1.434000000
C     0.189000000     3.360000000    -3.425000000
C     0.930000000     2.328000000    -4.095000000
H     0.437000000     1.637000000    -4.774000000
C     2.217000000     2.056000000    -3.690000000
O     2.735000000     0.847000000    -4.202000000
C     2.584000000    -0.191000000    -3.228000000
C     2.156000000    -1.531000000    -3.880000000
C     1.245000000    -1.512000000    -4.917000000
H     0.808000000    -0.585000000    -5.279000000
C     2.423000000    -2.792000000    -3.255000000
H     2.978000000    -2.741000000    -2.322000000
O     3.877000000    -0.370000000    -2.607000000
H     1.818000000     0.053000000    -2.478000000
C     2.873000000     2.798000000    -2.724000000
C     4.314000000     2.464000000    -2.338000000
H     4.811000000     3.394000000    -2.053000000
H     4.848000000     1.967000000    -3.151000000
C     4.302000000     1.517000000    -1.147000000
C     4.110000000     0.192000000    -1.310000000
C     4.209000000    -0.628000000    -0.179000000
H     4.015000000    -1.692000000    -0.295000000
C     4.390000000    -0.124000000     1.093000000
O     4.383000000    -1.043000000     2.154000000
C     3.139000000    -1.061000000     2.912000000
H     2.336000000    -0.656000000     2.278000000
C     2.754000000    -2.479000000     3.181000000
C     2.039000000    -2.863000000     4.331000000
H     1.813000000    -2.109000000     5.081000000
C     2.894000000    -3.504000000     2.212000000
H     3.190000000    -3.164000000     1.223000000
C     2.532000000    -4.851000000     2.416000000
O     2.705000000    -5.887000000     1.488000000
C     2.051000000    -5.184000000     3.671000000
H     1.778000000    -6.199000000     3.948000000
C     1.869000000    -4.192000000     4.659000000
O     1.337000000    -4.520000000     5.894000000
C     0.303000000    -3.836000000     6.496000000
C    -0.747000000    -3.368000000     5.759000000
H    -0.868000000    -3.542000000     4.692000000
C     0.452000000    -3.472000000     7.799000000
H     1.249000000    -3.915000000     8.390000000
C    -0.487000000    -2.708000000     8.471000000
H    -0.371000000    -2.513000000     9.534000000
C    -1.527000000    -2.164000000     7.722000000
H    -2.338000000    -1.641000000     8.223000000
C    -1.724000000    -2.537000000     6.388000000
O    -2.878000000    -2.315000000     5.710000000
C    -3.097000000    -1.311000000     4.839000000
C    -4.238000000    -1.318000000     4.098000000
H    -4.925000000    -2.153000000     4.205000000
C    -4.572000000    -0.381000000     3.183000000
O    -5.763000000    -0.542000000     2.480000000
C    -6.247000000     0.293000000     1.480000000
C    -5.973000000    -0.003000000     0.106000000
H    -5.531000000    -0.947000000    -0.205000000
C    -6.879000000     1.471000000     1.797000000
H    -7.121000000     1.741000000     2.822000000
C    -7.217000000     2.378000000     0.838000000
H    -7.788000000     3.268000000     1.087000000
C    -7.083000000     2.021000000    -0.469000000
H    -7.490000000     2.688000000    -1.225000000
C    -6.502000000     0.817000000    -0.857000000
O    -6.395000000     0.514000000    -2.187000000
C    -5.332000000     0.886000000    -2.927000000
C    -5.121000000     0.312000000    -4.197000000
H    -5.876000000    -0.365000000    -4.586000000
C    -3.971000000     0.523000000    -4.940000000
O    -3.893000000    -0.068000000    -6.147000000
C    -2.785000000    -0.393000000    -6.804000000
C    -2.010000000    -1.494000000    -6.379000000
H    -2.201000000    -2.153000000    -5.536000000
C    -2.535000000     0.296000000    -7.999000000
H    -3.233000000     1.048000000    -8.358000000
C    -1.344000000    -0.013000000    -8.667000000
H    -1.060000000     0.524000000    -9.569000000
C    -0.511000000    -1.044000000    -8.216000000
H     0.420000000    -1.312000000    -8.708000000
C    -0.828000000    -1.808000000    -7.096000000
O     0.055000000    -2.783000000    -6.607000000
C     0.856000000    -2.745000000    -5.495000000
C     1.208000000    -3.942000000    -4.931000000
H     0.874000000    -4.883000000    -5.359000000
C     1.930000000    -3.975000000    -3.789000000
O     2.252000000    -5.249000000    -3.257000000
C     3.085000000    -5.352000000    -2.114000000
C     4.474000000    -5.156000000    -2.208000000
H     4.853000000    -4.895000000    -3.193000000
C     5.290000000    -5.045000000    -1.103000000
H     6.313000000    -4.689000000    -1.191000000
C     4.649000000    -5.305000000     0.168000000
H     5.291000000    -5.135000000     1.029000000
C     3.299000000    -5.667000000     0.257000000
C     2.426000000    -5.615000000    -0.886000000
H     1.351000000    -5.749000000    -0.806000000
C    -0.199000000    -2.820000000    -0.536000000
H    -0.069000000    -3.790000000    -0.062000000
C     0.223000000    -1.727000000     0.109000000
H     0.658000000    -1.715000000     1.105000000
C     0.095000000    -0.513000000    -0.608000000
H     0.587000000     0.417000000    -0.257000000
C    -0.411000000    -0.461000000    -1.862000000
H    -0.334000000     0.502000000    -2.359000000
C    -0.927000000    -1.611000000    -2.486000000
H    -1.429000000    -1.601000000    -3.450000000
C    -0.811000000    -2.811000000    -1.772000000
C    -1.224000000    -4.073000000    -2.469000000
O    -1.913000000    -3.991000000    -3.448000000
O    -1.081000000    -5.139000000    -1.931000000
O    -1.258000000    -6.630000000     0.266000000
H    -1.360000000    -5.980000000    -0.429000000
H    -2.143000000    -6.757000000     0.608000000
O    -4.669000000    -6.854000000    -7.350000000
H    -5.097000000    -6.877000000    -8.206000000
H    -4.367000000    -5.950000000    -7.258000000
O     0.410000000    -8.722000000     1.989000000
H    -0.475000000    -9.086000000     2.008000000
H     0.305000000    -7.858000000     1.591000000
O     0.015000000    -8.800000000    -5.725000000
H    -0.915000000    -8.702000000    -5.929000000
H     0.089000000    -8.528000000    -4.810000000
O    -2.103000000    -4.416000000    -8.369000000
H    -1.985000000    -4.801000000    -7.500000000
H    -2.158000000    -5.168000000    -8.958000000
O    -3.626000000    -7.851000000    -5.201000000
H    -3.856000000    -8.771000000    -5.071000000
H    -4.096000000    -7.596000000    -5.995000000
O    -4.563000000    -3.335000000    -3.532000000
H    -3.640000000    -3.281000000    -3.285000000
H    -4.576000000    -3.108000000    -4.462000000
O     0.040000000    -8.679000000    -1.317000000
H    -0.401000000    -8.160000000    -0.644000000
H    -0.118000000    -8.200000000    -2.131000000
O    -6.927000000    -2.946000000    -2.290000000
H    -6.000000000    -3.027000000    -2.511000000
H    -7.385000000    -3.104000000    -3.116000000
O     0.764000000    -5.074000000    -8.152000000
H     0.575000000    -4.218000000    -7.768000000
H    -0.097000000    -5.456000000    -8.321000000
O    -3.861000000    -8.437000000    -0.558000000
H    -3.500000000    -7.739000000    -1.105000000
H    -3.862000000    -9.208000000    -1.125000000
O    -6.943000000    -5.297000000    -4.343000000
H    -6.323000000    -4.937000000    -3.708000000
H    -7.011000000    -6.223000000    -4.111000000
O    -3.752000000    -6.719000000    -2.535000000
H    -4.018000000    -7.175000000    -3.334000000
H    -3.103000000    -6.079000000    -2.829000000
O    -6.138000000    -4.555000000    -0.284000000
H    -6.657000000    -4.429000000     0.510000000
H    -6.623000000    -4.088000000    -0.964000000
O     4.346000000    -3.556000000    -5.554000000
H     3.820000000    -3.217000000    -4.830000000
H     3.919000000    -4.378000000    -5.796000000
O    -2.129000000    -5.143000000    -5.647000000
H    -1.949000000    -4.764000000    -4.787000000
H    -2.345000000    -6.058000000    -5.465000000
O    -1.663000000    -4.786000000     2.367000000
H    -2.463000000    -4.627000000     1.865000000
H    -1.071000000    -5.209000000     1.746000000
O    -0.153000000    -6.976000000    -3.519000000
H     0.588000000    -6.589000000    -3.985000000
H    -0.523000000    -6.251000000    -3.015000000
O    -4.085000000    -5.403000000     1.360000000
H    -4.361000000    -5.209000000     0.465000000
H    -4.244000000    -6.342000000     1.462000000
