215
-1459.22922
C    -4.186000000     0.569000000     2.967000000
H    -4.480000000     1.468000000     2.431000000
C    -2.938000000     0.530000000     3.651000000
C    -2.713000000    -0.607000000     4.409000000
H    -1.809000000    -0.707000000     5.004000000
C    -1.930000000     1.669000000     3.507000000
O    -2.524000000     2.965000000     3.172000000
H    -1.271000000     1.352000000     2.685000000
O    -1.053000000     1.800000000     4.705000000
C     0.286000000     1.902000000     4.386000000
C     1.008000000     0.732000000     4.575000000
H     0.555000000    -0.195000000     4.916000000
C     2.343000000     0.736000000     4.045000000
O     2.967000000    -0.554000000     4.137000000
C     2.928000000     1.845000000     3.452000000
C     4.336000000     1.855000000     2.932000000
H     4.903000000     2.776000000     3.086000000
C     4.287000000     1.445000000     1.471000000
C     4.368000000     2.408000000     0.446000000
H     4.287000000     3.467000000     0.680000000
H     5.071000000     1.191000000     3.392000000
C     2.196000000     3.010000000     3.393000000
H     2.528000000     3.987000000     3.050000000
C     0.856000000     3.023000000     3.876000000
C     0.087000000     4.348000000     3.569000000
H     0.631000000     5.284000000     3.711000000
H    -0.738000000     4.369000000     4.285000000
C    -0.650000000     4.316000000     2.179000000
C    -0.142000000     4.935000000     1.066000000
H     0.779000000     5.506000000     1.148000000
C    -1.948000000     3.713000000     2.146000000
C    -2.614000000     3.705000000     0.901000000
H    -3.592000000     3.246000000     0.779000000
C    -1.981000000     4.283000000    -0.206000000
O    -2.579000000     3.874000000    -1.393000000
C    -1.868000000     2.949000000    -2.332000000
C    -2.841000000     2.026000000    -3.060000000
C    -2.774000000     1.857000000    -4.443000000
H    -2.026000000     2.341000000    -5.066000000
C    -3.748000000     1.367000000    -2.253000000
H    -3.806000000     1.579000000    -1.189000000
O    -1.067000000     3.733000000    -3.288000000
H    -1.269000000     2.306000000    -1.671000000
C    -0.731000000     4.871000000    -0.163000000
C    -0.020000000     5.528000000    -1.386000000
H     0.603000000     6.312000000    -0.951000000
H    -0.804000000     6.055000000    -1.934000000
C     0.810000000     4.526000000    -2.173000000
C     2.172000000     4.326000000    -1.829000000
H     2.616000000     5.023000000    -1.124000000
C     0.285000000     3.690000000    -3.096000000
C     0.980000000     2.703000000    -3.763000000
H     0.517000000     2.182000000    -4.597000000
C     2.292000000     2.521000000    -3.403000000
O     2.910000000     1.410000000    -3.943000000
C     2.788000000     0.245000000    -3.074000000
C     2.441000000    -1.078000000    -3.789000000
C     1.635000000    -1.113000000    -4.926000000
H     1.428000000    -0.179000000    -5.444000000
C     2.583000000    -2.292000000    -3.049000000
H     3.017000000    -2.148000000    -2.062000000
O     4.035000000     0.029000000    -2.398000000
H     2.034000000     0.385000000    -2.286000000
C     2.893000000     3.294000000    -2.409000000
C     4.322000000     3.010000000    -2.067000000
H     4.821000000     3.896000000    -1.669000000
H     4.894000000     2.713000000    -2.949000000
C     4.404000000     1.961000000    -0.938000000
C     4.229000000     0.573000000    -1.159000000
C     4.113000000    -0.330000000    -0.136000000
H     3.994000000    -1.391000000    -0.338000000
C     4.313000000     0.090000000     1.183000000
O     4.281000000    -0.954000000     2.173000000
C     3.104000000    -1.283000000     2.874000000
H     2.296000000    -1.002000000     2.183000000
C     2.870000000    -2.785000000     3.091000000
C     2.006000000    -3.241000000     4.109000000
H     1.504000000    -2.610000000     4.838000000
C     3.431000000    -3.708000000     2.221000000
H     4.130000000    -3.390000000     1.452000000
C     3.121000000    -5.091000000     2.355000000
O     3.660000000    -5.982000000     1.466000000
C     2.300000000    -5.478000000     3.373000000
H     2.151000000    -6.547000000     3.502000000
C     1.721000000    -4.617000000     4.308000000
O     0.856000000    -5.089000000     5.280000000
C    -0.132000000    -4.340000000     5.906000000
C    -1.355000000    -4.005000000     5.267000000
H    -1.741000000    -4.542000000     4.405000000
C     0.177000000    -3.557000000     7.088000000
H     1.175000000    -3.673000000     7.503000000
C    -0.742000000    -2.762000000     7.744000000
H    -0.461000000    -2.178000000     8.617000000
C    -1.982000000    -2.539000000     7.135000000
H    -2.630000000    -1.751000000     7.512000000
C    -2.262000000    -3.168000000     5.936000000
O    -3.447000000    -2.868000000     5.258000000
C    -3.614000000    -1.723000000     4.467000000
C    -4.804000000    -1.594000000     3.847000000
H    -5.532000000    -2.374000000     4.053000000
C    -5.143000000    -0.434000000     3.134000000
O    -6.376000000    -0.460000000     2.510000000
C    -6.605000000     0.078000000     1.336000000
C    -5.972000000    -0.392000000     0.161000000
H    -5.451000000    -1.346000000     0.152000000
C    -7.438000000     1.214000000     1.285000000
H    -7.952000000     1.549000000     2.182000000
C    -7.534000000     1.943000000     0.172000000
H    -8.072000000     2.887000000     0.124000000
C    -6.899000000     1.509000000    -1.007000000
H    -6.897000000     2.141000000    -1.891000000
C    -6.114000000     0.348000000    -1.011000000
O    -5.610000000    -0.178000000    -2.187000000
C    -4.602000000     0.404000000    -2.898000000
C    -4.460000000     0.136000000    -4.261000000
H    -5.177000000    -0.517000000    -4.754000000
C    -3.614000000     0.873000000    -5.032000000
O    -3.507000000     0.581000000    -6.406000000
C    -2.393000000     0.035000000    -6.997000000
C    -1.544000000    -0.883000000    -6.328000000
H    -1.576000000    -1.105000000    -5.265000000
C    -2.173000000     0.313000000    -8.357000000
H    -2.879000000     0.963000000    -8.867000000
C    -1.135000000    -0.328000000    -9.091000000
H    -0.986000000    -0.042000000   -10.130000000
C    -0.236000000    -1.120000000    -8.379000000
H     0.572000000    -1.585000000    -8.937000000
C    -0.469000000    -1.467000000    -7.045000000
O     0.294000000    -2.468000000    -6.498000000
C     1.082000000    -2.302000000    -5.380000000
C     1.379000000    -3.511000000    -4.691000000
H     0.956000000    -4.446000000    -5.052000000
C     2.073000000    -3.485000000    -3.518000000
O     2.180000000    -4.626000000    -2.770000000
C     3.184000000    -4.793000000    -1.888000000
C     4.489000000    -4.620000000    -2.331000000
H     4.743000000    -4.228000000    -3.313000000
C     5.529000000    -4.797000000    -1.497000000
H     6.510000000    -4.548000000    -1.893000000
C     5.306000000    -5.306000000    -0.162000000
H     6.161000000    -5.509000000     0.477000000
C     4.016000000    -5.678000000     0.159000000
C     2.923000000    -5.483000000    -0.688000000
H     1.891000000    -5.745000000    -0.470000000
C    -1.140000000    -3.187000000     1.220000000
H    -1.422000000    -3.896000000     1.994000000
C    -0.451000000    -2.047000000     1.556000000
H    -0.353000000    -1.786000000     2.606000000
C    -0.142000000    -1.145000000     0.546000000
H     0.357000000    -0.148000000     0.796000000
C    -0.366000000    -1.487000000    -0.747000000
H     0.039000000    -0.843000000    -1.523000000
C    -0.975000000    -2.662000000    -1.124000000
H    -1.267000000    -2.873000000    -2.150000000
C    -1.372000000    -3.532000000    -0.128000000
C    -2.218000000    -4.730000000    -0.466000000
O    -2.647000000    -4.861000000    -1.558000000
O    -2.626000000    -5.420000000     0.466000000
O    -2.805000000    -7.904000000    -0.176000000
H    -2.631000000    -7.042000000     0.203000000
H    -3.461000000    -7.741000000    -0.853000000
O    -3.253000000    -9.976000000     1.410000000
H    -3.132000000    -9.389000000     0.664000000
H    -3.268000000    -9.397000000     2.171000000
O     0.232000000    -7.571000000    -5.470000000
H    -0.725000000    -7.544000000    -5.452000000
H     0.489000000    -7.535000000    -4.549000000
O    -4.814000000    -6.153000000     5.939000000
H    -4.989000000    -5.714000000     5.106000000
H    -5.471000000    -5.799000000     6.539000000
O    -4.623000000    -3.330000000    -2.510000000
H    -4.389000000    -2.401000000    -2.527000000
H    -3.820000000    -3.774000000    -2.236000000
O    -0.337000000    -9.256000000    -0.583000000
H    -0.931000000    -8.667000000    -0.117000000
H    -0.140000000    -8.799000000    -1.401000000
O    -5.924000000    -8.792000000     2.297000000
H    -5.959000000    -9.596000000     2.815000000
H    -5.895000000    -9.092000000     1.389000000
O    -6.938000000    -3.056000000    -4.058000000
H    -6.251000000    -3.325000000    -3.449000000
H    -6.479000000    -2.902000000    -4.884000000
O    -6.235000000    -8.346000000    -0.359000000
H    -6.015000000    -7.951000000    -1.202000000
H    -6.081000000    -7.650000000     0.279000000
O    -2.562000000    -7.542000000     5.392000000
H    -3.291000000    -7.099000000     5.826000000
H    -2.456000000    -7.074000000     4.564000000
O    -4.160000000    -7.321000000    -2.320000000
H    -4.109000000    -7.512000000    -3.257000000
H    -3.806000000    -6.435000000    -2.237000000
O    -1.686000000    -4.151000000    -5.640000000
H    -2.405000000    -3.647000000    -6.021000000
H    -0.897000000    -3.676000000    -5.899000000
O    -7.224000000    -3.708000000    -1.098000000
H    -7.786000000    -3.965000000    -1.830000000
H    -6.402000000    -3.441000000    -1.510000000
O    -6.159000000    -5.733000000     3.437000000
H    -6.086000000    -5.176000000     2.662000000
H    -6.028000000    -6.622000000     3.106000000
O    -1.446000000    -5.901000000    -3.715000000
H    -1.753000000    -5.475000000    -2.914000000
H    -1.492000000    -5.217000000    -4.383000000
O    -2.889000000    -6.180000000     3.043000000
H    -3.839000000    -6.061000000     3.034000000
H    -2.618000000    -6.009000000     2.141000000
O    -4.846000000   -10.545000000    -1.222000000
H    -5.339000000    -9.955000000    -0.652000000
H    -4.846000000   -10.111000000    -2.075000000
O     0.679000000    -7.337000000    -2.601000000
H     1.450000000    -6.781000000    -2.717000000
H    -0.062000000    -6.760000000    -2.790000000
O    -5.331000000    -5.789000000     0.816000000
H    -4.400000000    -5.607000000     0.681000000
H    -5.766000000    -5.374000000     0.072000000
