215
-1444.82389
C    -4.770000000     0.533000000     2.819000000
H    -4.922000000     1.479000000     2.306000000
C    -3.503000000     0.307000000     3.425000000
C    -3.278000000    -1.001000000     3.899000000
H    -2.270000000    -1.211000000     4.246000000
C    -2.307000000     1.282000000     3.382000000
O    -2.765000000     2.611000000     3.251000000
H    -1.746000000     1.087000000     2.456000000
O    -1.385000000     1.153000000     4.462000000
C    -0.057000000     1.282000000     4.257000000
C     0.649000000     0.039000000     4.213000000
H     0.131000000    -0.883000000     4.464000000
C     1.997000000     0.025000000     4.051000000
O     2.617000000    -1.176000000     4.011000000
C     2.732000000     1.167000000     3.758000000
C     4.180000000     1.201000000     3.450000000
H     4.585000000     2.181000000     3.711000000
C     4.429000000     0.890000000     1.970000000
C     4.449000000     1.931000000     1.115000000
H     4.293000000     2.913000000     1.552000000
H     4.715000000     0.545000000     4.140000000
C     2.012000000     2.399000000     3.803000000
H     2.367000000     3.369000000     3.462000000
C     0.620000000     2.453000000     4.019000000
C    -0.150000000     3.769000000     3.974000000
H     0.486000000     4.622000000     4.217000000
H    -0.855000000     3.732000000     4.808000000
C    -0.778000000     4.032000000     2.645000000
C    -0.080000000     4.698000000     1.635000000
H     0.923000000     5.093000000     1.775000000
C    -2.022000000     3.404000000     2.359000000
C    -2.544000000     3.537000000     1.110000000
H    -3.611000000     3.376000000     0.981000000
C    -1.829000000     4.173000000     0.092000000
O    -2.377000000     4.217000000    -1.176000000
C    -1.773000000     3.293000000    -2.132000000
C    -2.884000000     2.616000000    -2.947000000
C    -2.632000000     2.216000000    -4.236000000
H    -1.689000000     2.432000000    -4.733000000
C    -4.171000000     2.287000000    -2.335000000
H    -4.328000000     2.631000000    -1.316000000
O    -0.829000000     4.013000000    -3.003000000
H    -1.205000000     2.542000000    -1.564000000
C    -0.611000000     4.795000000     0.315000000
C     0.189000000     5.509000000    -0.831000000
H     0.907000000     6.259000000    -0.493000000
H    -0.468000000     6.042000000    -1.522000000
C     0.969000000     4.459000000    -1.621000000
C     2.269000000     4.082000000    -1.167000000
H     2.692000000     4.504000000    -0.259000000
C     0.467000000     3.811000000    -2.702000000
C     1.260000000     2.876000000    -3.412000000
H     0.902000000     2.328000000    -4.280000000
C     2.610000000     2.601000000    -3.054000000
O     3.253000000     1.442000000    -3.525000000
C     3.189000000     0.271000000    -2.734000000
C     2.694000000    -0.994000000    -3.522000000
C     1.738000000    -0.829000000    -4.531000000
H     1.449000000     0.137000000    -4.938000000
C     3.197000000    -2.220000000    -3.144000000
H     3.799000000    -2.417000000    -2.261000000
O     4.497000000     0.134000000    -2.097000000
H     2.501000000     0.449000000    -1.895000000
C     3.107000000     3.205000000    -1.868000000
C     4.449000000     2.899000000    -1.248000000
H     4.735000000     3.792000000    -0.688000000
H     5.172000000     2.652000000    -2.029000000
C     4.505000000     1.727000000    -0.274000000
C     4.637000000     0.442000000    -0.777000000
C     4.777000000    -0.657000000     0.119000000
H     4.788000000    -1.651000000    -0.322000000
C     4.582000000    -0.440000000     1.504000000
O     4.290000000    -1.496000000     2.397000000
C     2.874000000    -1.739000000     2.727000000
H     2.241000000    -1.394000000     1.896000000
C     2.591000000    -3.205000000     2.611000000
C     1.567000000    -3.735000000     3.393000000
H     1.247000000    -3.128000000     4.236000000
C     3.186000000    -4.011000000     1.670000000
H     3.990000000    -3.590000000     1.071000000
C     2.861000000    -5.391000000     1.573000000
O     3.467000000    -6.243000000     0.655000000
C     1.880000000    -5.881000000     2.452000000
H     1.641000000    -6.940000000     2.389000000
C     1.209000000    -5.093000000     3.361000000
O     0.159000000    -5.639000000     4.130000000
C    -0.711000000    -4.901000000     4.849000000
C    -1.902000000    -4.419000000     4.282000000
H    -2.335000000    -4.801000000     3.361000000
C    -0.379000000    -4.479000000     6.097000000
H     0.588000000    -4.784000000     6.489000000
C    -1.205000000    -3.591000000     6.857000000
H    -0.807000000    -3.265000000     7.814000000
C    -2.408000000    -3.119000000     6.293000000
H    -3.093000000    -2.425000000     6.771000000
C    -2.804000000    -3.558000000     4.978000000
O    -4.023000000    -3.142000000     4.392000000
C    -4.314000000    -1.925000000     3.901000000
C    -5.556000000    -1.676000000     3.323000000
H    -6.327000000    -2.442000000     3.328000000
C    -5.770000000    -0.442000000     2.793000000
O    -6.946000000    -0.104000000     2.202000000
C    -7.000000000     0.772000000     1.100000000
C    -6.591000000     0.460000000    -0.150000000
H    -6.136000000    -0.504000000    -0.364000000
C    -7.664000000     2.010000000     1.308000000
H    -8.139000000     2.202000000     2.267000000
C    -7.750000000     2.922000000     0.261000000
H    -8.290000000     3.860000000     0.366000000
C    -7.119000000     2.631000000    -0.930000000
H    -7.152000000     3.322000000    -1.769000000
C    -6.595000000     1.355000000    -1.185000000
O    -6.149000000     0.890000000    -2.344000000
C    -5.071000000     1.466000000    -2.985000000
C    -4.732000000     1.093000000    -4.286000000
H    -5.295000000     0.340000000    -4.831000000
C    -3.568000000     1.423000000    -4.877000000
O    -3.351000000     0.787000000    -6.066000000
C    -2.069000000     0.603000000    -6.602000000
C    -1.328000000    -0.529000000    -6.256000000
H    -1.667000000    -1.255000000    -5.521000000
C    -1.547000000     1.656000000    -7.322000000
H    -2.031000000     2.623000000    -7.430000000
C    -0.255000000     1.527000000    -7.793000000
H     0.212000000     2.357000000    -8.316000000
C     0.529000000     0.421000000    -7.529000000
H     1.593000000     0.348000000    -7.742000000
C    -0.058000000    -0.633000000    -6.804000000
O     0.645000000    -1.804000000    -6.449000000
C     1.429000000    -1.879000000    -5.335000000
C     2.005000000    -3.111000000    -5.072000000
H     1.745000000    -3.905000000    -5.768000000
C     2.952000000    -3.300000000    -4.009000000
O     3.352000000    -4.538000000    -3.739000000
C     4.117000000    -5.006000000    -2.665000000
C     5.556000000    -4.901000000    -2.617000000
H     6.052000000    -4.614000000    -3.541000000
C     6.308000000    -5.295000000    -1.515000000
H     7.380000000    -5.142000000    -1.419000000
C     5.580000000    -5.776000000    -0.370000000
H     6.244000000    -6.009000000     0.458000000
C     4.202000000    -5.812000000    -0.453000000
C     3.430000000    -5.426000000    -1.558000000
H     2.347000000    -5.510000000    -1.508000000
C    -2.767000000    -1.616000000     0.072000000
H    -3.494000000    -2.140000000     0.688000000
C    -1.602000000    -1.046000000     0.638000000
H    -1.333000000    -1.220000000     1.676000000
C    -0.726000000    -0.353000000    -0.136000000
H     0.126000000     0.123000000     0.363000000
C    -0.892000000    -0.194000000    -1.482000000
H    -0.162000000     0.350000000    -2.077000000
C    -2.053000000    -0.725000000    -2.043000000
H    -2.243000000    -0.507000000    -3.091000000
C    -3.015000000    -1.435000000    -1.326000000
C    -4.223000000    -2.026000000    -2.048000000
O    -4.253000000    -1.933000000    -3.253000000
O    -4.992000000    -2.761000000    -1.424000000
O     0.796000000    -3.061000000    -0.496000000
H     0.390000000    -3.040000000     0.371000000
H     0.614000000    -2.198000000    -0.867000000
O    -5.515000000    -5.423000000    -4.940000000
H    -4.667000000    -5.077000000    -5.220000000
H    -5.395000000    -6.372000000    -4.932000000
O    -7.605000000    -5.726000000    -3.254000000
H    -8.091000000    -6.494000000    -3.555000000
H    -6.848000000    -5.678000000    -3.838000000
O   -10.236000000    -3.039000000    -4.448000000
H    -9.326000000    -3.295000000    -4.594000000
H   -10.409000000    -3.276000000    -3.537000000
O    -4.418000000    -7.696000000    -1.552000000
H    -4.331000000    -6.744000000    -1.512000000
H    -4.686000000    -7.875000000    -2.454000000
O    -5.331000000    -2.077000000    -5.619000000
H    -4.703000000    -2.711000000    -5.965000000
H    -5.095000000    -1.984000000    -4.697000000
O    -1.649000000    -7.128000000    -0.898000000
H    -1.905000000    -7.005000000     0.016000000
H    -1.502000000    -6.241000000    -1.227000000
O    -8.067000000    -2.843000000    -6.135000000
H    -8.421000000    -2.010000000    -6.446000000
H    -7.133000000    -2.673000000    -6.006000000
O    -7.706000000    -3.019000000    -2.184000000
H    -6.764000000    -2.969000000    -2.023000000
H    -7.847000000    -3.910000000    -2.505000000
O    -7.400000000    -6.926000000    -0.704000000
H    -7.095000000    -7.822000000    -0.845000000
H    -7.339000000    -6.514000000    -1.566000000
O    -3.979000000    -5.173000000    -0.967000000
H    -3.062000000    -5.111000000    -1.236000000
H    -4.362000000    -4.335000000    -1.226000000
O    -3.307000000    -3.995000000    -6.484000000
H    -3.936000000    -3.747000000    -7.161000000
H    -2.630000000    -4.483000000    -6.953000000
O    -8.695000000    -0.531000000    -2.384000000
H    -8.256000000    -1.344000000    -2.135000000
H    -8.033000000     0.148000000    -2.256000000
O    -7.089000000    -5.231000000     1.643000000
H    -6.968000000    -4.419000000     1.150000000
H    -6.767000000    -5.917000000     1.057000000
O    -5.418000000    -0.574000000    -7.877000000
H    -5.255000000    -0.974000000    -7.023000000
H    -6.192000000    -1.028000000    -8.210000000
O    -2.181000000    -3.386000000    -4.000000000
H    -2.909000000    -2.861000000    -3.666000000
H    -2.432000000    -3.598000000    -4.900000000
O    -3.033000000    -6.843000000     1.568000000
H    -3.364000000    -6.308000000     0.846000000
H    -3.796000000    -6.988000000     2.128000000
O    -1.278000000    -4.676000000    -1.620000000
H    -0.537000000    -4.249000000    -1.191000000
H    -1.367000000    -4.218000000    -2.456000000
O    -6.572000000    -2.901000000     0.538000000
H    -5.710000000    -2.967000000     0.126000000
H    -7.128000000    -2.504000000    -0.133000000
