215
-1432.41237
C    -4.067000000     0.972000000     3.450000000
H    -4.029000000     1.837000000     2.792000000
C    -2.838000000     0.558000000     4.067000000
C    -2.750000000    -0.553000000     4.892000000
H    -1.847000000    -0.894000000     5.392000000
C    -1.577000000     1.391000000     3.774000000
O    -1.843000000     2.801000000     3.704000000
H    -1.201000000     1.038000000     2.803000000
O    -0.580000000     1.198000000     4.793000000
C     0.748000000     1.097000000     4.366000000
C     1.336000000    -0.178000000     4.282000000
H     0.722000000    -1.039000000     4.533000000
C     2.574000000    -0.276000000     3.723000000
O     3.053000000    -1.524000000     3.418000000
C     3.308000000     0.795000000     3.284000000
C     4.667000000     0.745000000     2.642000000
H     5.271000000     1.637000000     2.820000000
C     4.542000000     0.478000000     1.186000000
C     4.691000000     1.483000000     0.217000000
H     4.795000000     2.530000000     0.491000000
H     5.232000000    -0.077000000     3.085000000
C     2.761000000     2.043000000     3.419000000
H     3.231000000     2.882000000     2.914000000
C     1.450000000     2.195000000     3.901000000
C     0.964000000     3.649000000     4.059000000
H     1.794000000     4.342000000     4.216000000
H     0.371000000     3.605000000     4.975000000
C     0.076000000     4.059000000     2.916000000
C     0.671000000     4.793000000     1.920000000
H     1.651000000     5.227000000     2.106000000
C    -1.220000000     3.551000000     2.778000000
C    -1.952000000     3.907000000     1.640000000
H    -2.922000000     3.451000000     1.463000000
C    -1.336000000     4.576000000     0.588000000
O    -2.016000000     4.472000000    -0.630000000
C    -1.638000000     3.412000000    -1.608000000
C    -2.854000000     2.718000000    -2.189000000
C    -2.835000000     2.067000000    -3.388000000
H    -1.907000000     2.029000000    -3.953000000
C    -4.037000000     2.693000000    -1.460000000
H    -4.101000000     3.070000000    -0.442000000
O    -0.817000000     3.909000000    -2.631000000
H    -1.045000000     2.647000000    -1.085000000
C    -0.002000000     4.899000000     0.666000000
C     0.684000000     5.396000000    -0.606000000
H     1.399000000     6.158000000    -0.289000000
H    -0.056000000     5.962000000    -1.176000000
C     1.292000000     4.286000000    -1.440000000
C     2.654000000     3.908000000    -1.327000000
H     3.342000000     4.322000000    -0.594000000
C     0.495000000     3.646000000    -2.370000000
C     0.995000000     2.691000000    -3.228000000
H     0.368000000     2.095000000    -3.886000000
C     2.298000000     2.248000000    -3.091000000
O     2.587000000     1.210000000    -3.869000000
C     2.656000000    -0.153000000    -3.313000000
C     2.270000000    -1.253000000    -4.313000000
C     1.425000000    -0.833000000    -5.370000000
H     1.202000000     0.216000000    -5.551000000
C     2.430000000    -2.631000000    -3.925000000
H     2.957000000    -2.878000000    -3.007000000
O     4.025000000    -0.365000000    -2.889000000
H     1.965000000    -0.234000000    -2.460000000
C     3.121000000     2.871000000    -2.195000000
C     4.559000000     2.437000000    -2.094000000
H     5.164000000     3.252000000    -1.693000000
H     4.964000000     2.100000000    -3.051000000
C     4.596000000     1.216000000    -1.127000000
C     4.355000000    -0.095000000    -1.543000000
C     4.287000000    -1.077000000    -0.654000000
H     4.244000000    -2.115000000    -0.973000000
C     4.430000000    -0.810000000     0.707000000
O     4.233000000    -1.915000000     1.482000000
C     2.938000000    -2.019000000     2.084000000
H     2.291000000    -1.357000000     1.490000000
C     2.456000000    -3.454000000     2.111000000
C     1.248000000    -3.784000000     2.755000000
H     0.697000000    -3.043000000     3.327000000
C     3.097000000    -4.355000000     1.242000000
H     3.842000000    -4.064000000     0.505000000
C     2.465000000    -5.584000000     1.127000000
O     2.900000000    -6.464000000     0.159000000
C     1.318000000    -5.955000000     1.823000000
H     0.871000000    -6.942000000     1.736000000
C     0.727000000    -5.110000000     2.713000000
O    -0.346000000    -5.432000000     3.482000000
C    -0.829000000    -4.780000000     4.574000000
C    -2.064000000    -4.090000000     4.458000000
H    -2.576000000    -4.016000000     3.503000000
C     0.001000000    -4.633000000     5.685000000
H     0.925000000    -5.197000000     5.785000000
C    -0.382000000    -3.804000000     6.673000000
H     0.332000000    -3.568000000     7.458000000
C    -1.568000000    -3.176000000     6.618000000
H    -1.891000000    -2.530000000     7.430000000
C    -2.436000000    -3.302000000     5.514000000
O    -3.678000000    -2.633000000     5.395000000
C    -3.804000000    -1.409000000     4.839000000
C    -5.004000000    -1.030000000     4.201000000
H    -5.874000000    -1.677000000     4.282000000
C    -5.210000000     0.203000000     3.562000000
O    -6.455000000     0.488000000     2.959000000
C    -6.644000000     1.578000000     2.195000000
C    -6.752000000     1.415000000     0.833000000
H    -6.785000000     0.416000000     0.408000000
C    -6.625000000     2.878000000     2.682000000
H    -6.501000000     3.018000000     3.753000000
C    -6.600000000     3.975000000     1.830000000
H    -6.547000000     4.992000000     2.208000000
C    -6.577000000     3.800000000     0.464000000
H    -6.496000000     4.632000000    -0.232000000
C    -6.502000000     2.467000000     0.007000000
O    -6.443000000     2.213000000    -1.352000000
C    -5.217000000     2.208000000    -2.006000000
C    -5.136000000     1.482000000    -3.195000000
H    -5.967000000     0.893000000    -3.576000000
C    -3.976000000     1.459000000    -3.952000000
O    -3.977000000     0.663000000    -5.064000000
C    -2.928000000     0.628000000    -5.990000000
C    -2.118000000    -0.510000000    -6.157000000
H    -2.489000000    -1.428000000    -5.710000000
C    -2.534000000     1.847000000    -6.609000000
H    -3.041000000     2.793000000    -6.439000000
C    -1.423000000     1.930000000    -7.383000000
H    -1.133000000     2.875000000    -7.835000000
C    -0.593000000     0.784000000    -7.581000000
H     0.250000000     0.851000000    -8.264000000
C    -0.910000000    -0.434000000    -6.921000000
O    -0.113000000    -1.554000000    -7.039000000
C     0.880000000    -1.862000000    -6.158000000
C     1.138000000    -3.210000000    -5.863000000
H     0.710000000    -3.978000000    -6.502000000
C     1.866000000    -3.613000000    -4.690000000
O     1.967000000    -4.961000000    -4.322000000
C     2.851000000    -5.470000000    -3.354000000
C     4.120000000    -5.733000000    -3.770000000
H     4.490000000    -5.622000000    -4.786000000
C     5.080000000    -6.188000000    -2.809000000
H     6.124000000    -6.238000000    -3.107000000
C     4.652000000    -6.411000000    -1.487000000
H     5.279000000    -6.733000000    -0.659000000
C     3.294000000    -6.080000000    -1.100000000
C     2.460000000    -5.603000000    -2.065000000
H     1.444000000    -5.263000000    -1.884000000
C    -1.865000000    -1.450000000     1.372000000
H    -2.070000000    -2.123000000     2.200000000
C    -0.579000000    -0.899000000     1.312000000
H     0.153000000    -1.060000000     2.099000000
C    -0.310000000    -0.051000000     0.247000000
H     0.641000000     0.554000000     0.245000000
C    -1.203000000     0.071000000    -0.784000000
H    -0.982000000     0.747000000    -1.605000000
C    -2.459000000    -0.566000000    -0.765000000
H    -3.175000000    -0.354000000    -1.555000000
C    -2.789000000    -1.393000000     0.329000000
C    -4.153000000    -2.090000000     0.405000000
O    -4.898000000    -1.859000000    -0.541000000
O    -4.542000000    -2.699000000     1.381000000
O    -0.077000000    -3.375000000    -1.746000000
H    -0.302000000    -2.758000000    -1.049000000
H    -0.192000000    -2.876000000    -2.554000000
O    -3.713000000    -5.837000000    -2.559000000
H    -4.186000000    -6.619000000    -2.274000000
H    -4.363000000    -5.327000000    -3.042000000
O    -8.393000000    -6.440000000    -0.572000000
H    -9.233000000    -5.982000000    -0.600000000
H    -8.163000000    -6.575000000    -1.492000000
O    -8.705000000    -2.385000000    -3.167000000
H    -7.970000000    -2.311000000    -2.559000000
H    -9.337000000    -1.736000000    -2.859000000
O    -5.536000000    -5.995000000     4.617000000
H    -5.242000000    -5.579000000     3.806000000
H    -6.141000000    -5.363000000     5.005000000
O   -10.249000000     0.271000000     1.087000000
H   -11.089000000     0.196000000     1.540000000
H   -10.181000000    -0.534000000     0.574000000
O    -1.914000000    -7.376000000    -4.120000000
H    -2.424000000    -6.847000000    -3.506000000
H    -2.570000000    -7.793000000    -4.679000000
O    -5.648000000    -1.603000000    -3.329000000
H    -5.255000000    -1.880000000    -2.501000000
H    -5.597000000    -0.648000000    -3.311000000
O    -7.146000000    -2.952000000    -0.846000000
H    -6.330000000    -2.458000000    -0.774000000
H    -6.868000000    -3.859000000    -0.968000000
O    -6.141000000    -6.807000000     0.932000000
H    -5.577000000    -7.237000000     0.289000000
H    -6.934000000    -6.586000000     0.444000000
O    -9.005000000     0.191000000     4.177000000
H    -8.827000000     0.697000000     4.970000000
H    -8.155000000     0.121000000     3.743000000
O    -4.384000000    -5.211000000     2.243000000
H    -5.046000000    -5.677000000     1.732000000
H    -4.458000000    -4.300000000     1.957000000
O    -3.572000000    -3.948000000    -6.084000000
H    -4.024000000    -4.730000000    -6.401000000
H    -3.193000000    -4.212000000    -5.246000000
O    -9.755000000    -2.617000000     0.434000000
H    -9.011000000    -2.698000000    -0.164000000
H   -10.480000000    -2.332000000    -0.122000000
O    -7.845000000    -5.666000000     2.834000000
H    -7.684000000    -4.736000000     2.675000000
H    -7.202000000    -6.117000000     2.287000000
O    -5.790000000    -4.222000000    -3.503000000
H    -5.566000000    -3.292000000    -3.519000000
H    -6.560000000    -4.293000000    -4.068000000
O    -3.161000000    -7.314000000     3.813000000
H    -3.253000000    -6.702000000     3.082000000
H    -3.562000000    -6.862000000     4.556000000
O    -1.154000000    -5.970000000    -1.149000000
H    -0.768000000    -5.094000000    -1.166000000
H    -1.782000000    -5.970000000    -1.871000000
O    -7.127000000    -3.168000000     2.024000000
H    -6.193000000    -2.972000000     1.947000000
H    -7.455000000    -3.128000000     1.125000000
