215
-1463.28353
C    -2.794000000     2.209000000     3.903000000
H    -3.049000000     2.945000000     3.145000000
C    -1.468000000     1.930000000     4.262000000
C    -1.244000000     1.032000000     5.255000000
H    -0.213000000     0.860000000     5.554000000
C    -0.307000000     2.614000000     3.618000000
O    -0.614000000     3.991000000     3.232000000
H    -0.073000000     2.082000000     2.684000000
O     0.931000000     2.667000000     4.400000000
C     2.011000000     2.295000000     3.693000000
C     2.574000000     1.051000000     3.904000000
H     2.213000000     0.403000000     4.699000000
C     3.510000000     0.541000000     3.034000000
O     3.674000000    -0.828000000     2.989000000
C     4.092000000     1.397000000     2.136000000
C     5.245000000     0.933000000     1.254000000
H     5.937000000     1.758000000     1.067000000
C     4.786000000     0.384000000    -0.081000000
C     4.725000000     1.190000000    -1.204000000
H     4.938000000     2.255000000    -1.154000000
H     5.904000000     0.140000000     1.614000000
C     3.697000000     2.761000000     2.115000000
H     4.322000000     3.405000000     1.502000000
C     2.548000000     3.197000000     2.785000000
C     2.061000000     4.643000000     2.544000000
H     2.893000000     5.216000000     2.130000000
H     1.772000000     5.087000000     3.499000000
C     0.928000000     4.584000000     1.558000000
C     1.113000000     5.012000000     0.256000000
H     2.089000000     5.417000000     0.003000000
C    -0.383000000     4.200000000     1.914000000
C    -1.386000000     4.179000000     1.015000000
H    -2.318000000     3.698000000     1.302000000
C    -1.150000000     4.275000000    -0.331000000
O    -2.197000000     4.052000000    -1.199000000
C    -2.142000000     2.926000000    -2.031000000
C    -3.507000000     2.238000000    -2.320000000
C    -3.859000000     1.653000000    -3.537000000
H    -3.194000000     1.834000000    -4.377000000
C    -4.345000000     2.126000000    -1.221000000
H    -4.031000000     2.469000000    -0.238000000
O    -1.437000000     3.184000000    -3.242000000
H    -1.574000000     2.126000000    -1.534000000
C     0.137000000     4.748000000    -0.693000000
C     0.551000000     4.982000000    -2.095000000
H     1.425000000     5.636000000    -2.125000000
H    -0.217000000     5.453000000    -2.713000000
C     0.892000000     3.621000000    -2.774000000
C     2.237000000     3.343000000    -3.033000000
H     3.003000000     3.992000000    -2.617000000
C    -0.118000000     2.870000000    -3.380000000
C     0.150000000     1.649000000    -3.961000000
H    -0.605000000     1.059000000    -4.476000000
C     1.490000000     1.317000000    -4.095000000
O     1.739000000     0.067000000    -4.705000000
C     2.006000000    -1.023000000    -3.764000000
C     1.234000000    -2.247000000    -4.186000000
C    -0.137000000    -2.144000000    -4.567000000
H    -0.510000000    -1.124000000    -4.598000000
C     1.669000000    -3.536000000    -3.881000000
H     2.634000000    -3.796000000    -3.453000000
O     3.404000000    -1.326000000    -3.601000000
H     1.662000000    -0.784000000    -2.747000000
C     2.515000000     2.133000000    -3.627000000
C     3.998000000     1.599000000    -3.617000000
H     4.655000000     2.455000000    -3.446000000
H     4.398000000     1.241000000    -4.568000000
C     4.246000000     0.708000000    -2.409000000
C     3.958000000    -0.744000000    -2.488000000
C     4.112000000    -1.513000000    -1.347000000
H     3.801000000    -2.554000000    -1.381000000
C     4.518000000    -0.940000000    -0.156000000
O     4.425000000    -1.737000000     1.002000000
C     3.263000000    -1.535000000     1.836000000
H     2.611000000    -0.834000000     1.294000000
C     2.613000000    -2.890000000     2.211000000
C     1.891000000    -3.003000000     3.370000000
H     1.921000000    -2.183000000     4.083000000
C     2.619000000    -4.071000000     1.413000000
H     3.080000000    -3.979000000     0.433000000
C     1.948000000    -5.195000000     1.751000000
O     1.703000000    -6.192000000     0.870000000
C     1.264000000    -5.268000000     2.930000000
H     0.692000000    -6.141000000     3.234000000
C     1.193000000    -4.143000000     3.746000000
O     0.425000000    -4.238000000     4.888000000
C     0.355000000    -3.213000000     5.798000000
C    -0.782000000    -2.402000000     5.826000000
H    -1.556000000    -2.421000000     5.062000000
C     1.273000000    -3.141000000     6.826000000
H     2.020000000    -3.929000000     6.785000000
C     1.144000000    -2.206000000     7.869000000
H     1.870000000    -2.262000000     8.676000000
C     0.083000000    -1.270000000     7.849000000
H    -0.073000000    -0.518000000     8.618000000
C    -0.890000000    -1.470000000     6.842000000
O    -2.014000000    -0.650000000     6.836000000
C    -2.273000000     0.369000000     5.905000000
C    -3.593000000     0.661000000     5.598000000
H    -4.492000000     0.176000000     5.971000000
C    -3.844000000     1.591000000     4.608000000
O    -5.168000000     1.769000000     4.290000000
C    -5.637000000     2.261000000     3.096000000
C    -5.505000000     1.503000000     1.951000000
H    -5.050000000     0.516000000     1.934000000
C    -6.271000000     3.482000000     3.173000000
H    -6.228000000     4.055000000     4.097000000
C    -6.767000000     3.942000000     1.984000000
H    -7.404000000     4.821000000     2.036000000
C    -6.777000000     3.234000000     0.820000000
H    -7.295000000     3.591000000    -0.066000000
C    -6.160000000     1.960000000     0.795000000
O    -6.320000000     1.190000000    -0.332000000
C    -5.573000000     1.465000000    -1.388000000
C    -5.983000000     0.885000000    -2.570000000
H    -6.930000000     0.353000000    -2.607000000
C    -5.075000000     0.973000000    -3.667000000
O    -5.379000000     0.295000000    -4.818000000
C    -4.387000000    -0.288000000    -5.595000000
C    -3.804000000    -1.435000000    -5.091000000
H    -4.168000000    -1.892000000    -4.174000000
C    -3.905000000     0.242000000    -6.735000000
H    -4.260000000     1.191000000    -7.129000000
C    -2.841000000    -0.378000000    -7.439000000
H    -2.388000000     0.040000000    -8.334000000
C    -2.289000000    -1.544000000    -6.940000000
H    -1.543000000    -2.013000000    -7.577000000
C    -2.812000000    -2.164000000    -5.789000000
O    -2.243000000    -3.296000000    -5.307000000
C    -0.932000000    -3.315000000    -4.782000000
C    -0.336000000    -4.570000000    -4.590000000
H    -0.879000000    -5.448000000    -4.929000000
C     0.931000000    -4.675000000    -4.140000000
O     1.424000000    -5.905000000    -3.846000000
C     2.178000000    -6.130000000    -2.744000000
C     3.515000000    -6.362000000    -2.871000000
H     3.831000000    -6.295000000    -3.909000000
C     4.270000000    -6.655000000    -1.774000000
H     5.332000000    -6.870000000    -1.857000000
C     3.680000000    -6.616000000    -0.508000000
H     4.314000000    -6.787000000     0.358000000
C     2.315000000    -6.302000000    -0.343000000
C     1.580000000    -6.041000000    -1.487000000
H     0.500000000    -5.912000000    -1.477000000
C    -1.809000000    -1.196000000     1.256000000
H    -2.176000000    -1.580000000     2.205000000
C    -0.598000000    -0.530000000     1.216000000
H    -0.072000000    -0.238000000     2.121000000
C    -0.116000000    -0.047000000    -0.009000000
H     0.787000000     0.643000000     0.049000000
C    -0.764000000    -0.344000000    -1.229000000
H    -0.486000000     0.017000000    -2.216000000
C    -1.974000000    -1.073000000    -1.172000000
H    -2.552000000    -1.241000000    -2.077000000
C    -2.528000000    -1.416000000     0.081000000
C    -3.791000000    -2.250000000     0.040000000
O    -4.126000000    -2.748000000    -1.036000000
O    -4.428000000    -2.402000000     1.067000000
O    -3.021000000    -5.157000000     1.970000000
H    -2.482000000    -5.928000000     2.146000000
H    -3.312000000    -4.866000000     2.835000000
O    -9.398000000    -3.457000000    -1.858000000
H    -9.637000000    -4.348000000    -2.114000000
H    -8.691000000    -3.217000000    -2.457000000
O    -5.299000000    -4.530000000    -5.664000000
H    -5.214000000    -3.608000000    -5.421000000
H    -5.376000000    -4.991000000    -4.828000000
O    -4.826000000    -5.271000000    -0.288000000
H    -4.362000000    -4.951000000     0.485000000
H    -4.993000000    -4.486000000    -0.809000000
O    -6.618000000    -2.719000000    -2.151000000
H    -5.729000000    -2.517000000    -1.858000000
H    -6.657000000    -2.383000000    -3.046000000
O    -1.810000000    -7.715000000    -0.137000000
H    -1.128000000    -8.345000000    -0.371000000
H    -1.334000000    -6.911000000     0.070000000
O    -6.676000000    -1.278000000     5.114000000
H    -7.477000000    -1.722000000     4.836000000
H    -6.061000000    -1.422000000     4.394000000
O    -4.467000000    -7.130000000    -3.094000000
H    -3.830000000    -6.421000000    -3.008000000
H    -5.208000000    -6.854000000    -2.554000000
O    -4.383000000    -8.111000000    -0.478000000
H    -3.466000000    -7.963000000    -0.248000000
H    -4.716000000    -7.244000000    -0.707000000
O    -7.412000000    -1.349000000     0.327000000
H    -7.199000000    -2.031000000    -0.311000000
H    -6.647000000    -0.774000000     0.327000000
O    -3.640000000    -5.143000000     4.847000000
H    -3.883000000    -4.364000000     5.347000000
H    -2.944000000    -5.550000000     5.362000000
O    -4.850000000    -2.368000000     3.503000000
H    -4.509000000    -2.431000000     2.611000000
H    -5.540000000    -3.030000000     3.543000000
O    -3.043000000    -4.728000000    -3.201000000
H    -2.754000000    -4.310000000    -4.012000000
H    -2.837000000    -4.091000000    -2.517000000
O    -8.657000000    -5.821000000     1.565000000
H    -8.231000000    -6.433000000     0.964000000
H    -7.972000000    -5.190000000     1.788000000
O    -7.137000000    -6.134000000    -2.538000000
H    -6.655000000    -5.338000000    -2.314000000
H    -7.093000000    -6.671000000    -1.747000000
O    -6.562000000    -2.337000000    -4.734000000
H    -7.086000000    -2.751000000    -5.420000000
H    -6.397000000    -1.452000000    -5.060000000
O    -9.426000000     0.852000000     0.536000000
H    -9.682000000     0.724000000     1.450000000
H    -8.856000000     0.109000000     0.341000000
O    -6.900000000    -3.736000000     1.617000000
H    -7.383000000    -2.947000000     1.372000000
H    -6.002000000    -3.565000000     1.333000000
O    -1.257000000    -4.326000000    -0.100000000
H    -1.304000000    -3.461000000    -0.507000000
H    -1.681000000    -4.213000000     0.751000000
