215
-1418.61895
C    -2.376000000     2.894000000     3.682000000
H    -2.233000000     3.756000000     3.035000000
C    -1.244000000     2.130000000     3.957000000
C    -1.354000000     1.021000000     4.812000000
H    -0.417000000     0.501000000     4.994000000
C     0.123000000     2.543000000     3.254000000
O     0.133000000     3.848000000     2.689000000
H     0.130000000     1.833000000     2.414000000
O     1.303000000     2.231000000     3.992000000
C     2.460000000     1.773000000     3.429000000
C     2.593000000     0.379000000     3.637000000
H     1.915000000    -0.093000000     4.343000000
C     3.627000000    -0.247000000     3.015000000
O     3.725000000    -1.626000000     3.154000000
C     4.497000000     0.466000000     2.205000000
C     5.492000000    -0.271000000     1.381000000
H     6.220000000     0.485000000     1.082000000
C     4.910000000    -0.824000000     0.140000000
C     4.812000000    -0.085000000    -1.012000000
H     5.289000000     0.891000000    -0.976000000
H     5.974000000    -1.090000000     1.919000000
C     4.370000000     1.862000000     1.985000000
H     4.993000000     2.331000000     1.228000000
C     3.273000000     2.496000000     2.569000000
C     3.133000000     3.996000000     2.203000000
H     4.059000000     4.397000000     1.787000000
H     2.932000000     4.692000000     3.019000000
C     2.059000000     4.140000000     1.138000000
C     2.531000000     4.380000000    -0.194000000
H     3.593000000     4.531000000    -0.371000000
C     0.681000000     4.164000000     1.425000000
C    -0.220000000     4.471000000     0.418000000
H    -1.293000000     4.462000000     0.591000000
C     0.228000000     4.702000000    -0.894000000
O    -0.716000000     4.719000000    -1.946000000
C    -0.930000000     3.449000000    -2.564000000
C    -2.445000000     3.095000000    -2.739000000
C    -3.033000000     2.749000000    -3.990000000
H    -2.432000000     2.748000000    -4.896000000
C    -3.228000000     3.115000000    -1.590000000
H    -2.893000000     3.310000000    -0.574000000
O    -0.355000000     3.393000000    -3.876000000
H    -0.396000000     2.680000000    -1.986000000
C     1.602000000     4.548000000    -1.223000000
C     2.002000000     4.667000000    -2.714000000
H     3.052000000     4.965000000    -2.740000000
H     1.384000000     5.367000000    -3.280000000
C     1.998000000     3.256000000    -3.339000000
C     3.159000000     2.424000000    -3.279000000
H     4.033000000     2.955000000    -2.911000000
C     0.868000000     2.762000000    -3.964000000
C     0.774000000     1.508000000    -4.468000000
H    -0.113000000     1.093000000    -4.939000000
C     1.885000000     0.703000000    -4.363000000
O     1.711000000    -0.660000000    -4.737000000
C     1.604000000    -1.621000000    -3.610000000
C     0.425000000    -2.588000000    -3.748000000
C    -0.870000000    -2.114000000    -3.974000000
H    -1.033000000    -1.063000000    -4.201000000
C     0.492000000    -3.988000000    -3.496000000
H     1.459000000    -4.408000000    -3.231000000
O     2.885000000    -2.281000000    -3.258000000
H     1.378000000    -0.993000000    -2.736000000
C     3.080000000     1.184000000    -3.770000000
C     4.249000000     0.242000000    -3.458000000
H     5.091000000     0.920000000    -3.303000000
H     4.435000000    -0.401000000    -4.321000000
C     4.188000000    -0.605000000    -2.204000000
C     3.505000000    -1.861000000    -2.181000000
C     3.572000000    -2.635000000    -1.027000000
H     3.081000000    -3.604000000    -1.005000000
C     4.307000000    -2.145000000     0.088000000
O     4.034000000    -2.917000000     1.210000000
C     3.052000000    -2.374000000     2.111000000
H     2.423000000    -1.663000000     1.555000000
C     2.104000000    -3.398000000     2.636000000
C     1.615000000    -3.362000000     3.978000000
H     1.954000000    -2.563000000     4.632000000
C     1.579000000    -4.344000000     1.741000000
H     1.874000000    -4.351000000     0.694000000
C     0.788000000    -5.367000000     2.269000000
O     0.541000000    -6.426000000     1.521000000
C     0.319000000    -5.372000000     3.611000000
H    -0.287000000    -6.194000000     3.982000000
C     0.698000000    -4.261000000     4.398000000
O     0.326000000    -4.110000000     5.703000000
C     0.044000000    -2.890000000     6.234000000
C    -1.100000000    -2.232000000     5.872000000
H    -1.639000000    -2.682000000     5.043000000
C     0.519000000    -2.531000000     7.533000000
H     1.289000000    -3.166000000     7.964000000
C     0.122000000    -1.450000000     8.303000000
H     0.562000000    -1.266000000     9.280000000
C    -0.923000000    -0.692000000     7.768000000
H    -1.254000000     0.222000000     8.254000000
C    -1.561000000    -1.140000000     6.657000000
O    -2.636000000    -0.414000000     6.256000000
C    -2.579000000     0.670000000     5.398000000
C    -3.646000000     1.485000000     5.179000000
H    -4.619000000     1.282000000     5.619000000
C    -3.547000000     2.487000000     4.275000000
O    -4.684000000     3.307000000     4.046000000
C    -5.090000000     3.781000000     2.854000000
C    -4.841000000     3.045000000     1.679000000
H    -4.440000000     2.035000000     1.714000000
C    -5.596000000     5.056000000     2.800000000
H    -5.829000000     5.557000000     3.736000000
C    -5.987000000     5.542000000     1.539000000
H    -6.386000000     6.553000000     1.557000000
C    -5.835000000     4.829000000     0.359000000
H    -6.279000000     5.181000000    -0.569000000
C    -5.275000000     3.534000000     0.449000000
O    -5.440000000     2.744000000    -0.651000000
C    -4.577000000     2.720000000    -1.747000000
C    -5.100000000     2.325000000    -2.893000000
H    -6.152000000     2.051000000    -2.900000000
C    -4.350000000     2.403000000    -4.080000000
O    -4.880000000     1.960000000    -5.295000000
C    -4.423000000     0.757000000    -5.760000000
C    -4.276000000    -0.348000000    -4.894000000
H    -4.754000000    -0.416000000    -3.920000000
C    -3.895000000     0.622000000    -7.000000000
H    -4.042000000     1.466000000    -7.669000000
C    -3.152000000    -0.486000000    -7.341000000
H    -2.689000000    -0.678000000    -8.306000000
C    -2.844000000    -1.473000000    -6.467000000
H    -2.212000000    -2.329000000    -6.690000000
C    -3.433000000    -1.404000000    -5.251000000
O    -3.240000000    -2.355000000    -4.294000000
C    -2.030000000    -2.889000000    -3.994000000
C    -1.848000000    -4.229000000    -3.626000000
H    -2.683000000    -4.925000000    -3.628000000
C    -0.641000000    -4.775000000    -3.474000000
O    -0.521000000    -6.064000000    -3.092000000
C     0.361000000    -6.438000000    -2.116000000
C     1.500000000    -7.149000000    -2.383000000
H     1.690000000    -7.508000000    -3.391000000
C     2.361000000    -7.572000000    -1.391000000
H     3.253000000    -8.158000000    -1.596000000
C     2.027000000    -7.298000000    -0.074000000
H     2.526000000    -7.740000000     0.785000000
C     0.901000000    -6.502000000     0.173000000
C     0.010000000    -6.087000000    -0.837000000
H    -0.955000000    -5.660000000    -0.575000000
C    -1.729000000    -2.744000000     1.081000000
H    -1.698000000    -3.367000000     1.971000000
C    -0.703000000    -1.912000000     0.768000000
H     0.209000000    -1.992000000     1.354000000
C    -0.852000000    -0.916000000    -0.192000000
H    -0.039000000    -0.145000000    -0.258000000
C    -2.006000000    -0.821000000    -0.885000000
H    -2.121000000    -0.063000000    -1.655000000
C    -3.076000000    -1.675000000    -0.644000000
H    -4.026000000    -1.605000000    -1.168000000
C    -2.944000000    -2.645000000     0.360000000
C    -4.137000000    -3.495000000     0.754000000
O    -5.211000000    -3.476000000     0.225000000
O    -3.993000000    -4.244000000     1.677000000
O    -8.297000000    -1.929000000     0.567000000
H    -8.234000000    -2.884000000     0.529000000
H    -7.739000000    -1.681000000     1.304000000
O    -4.501000000    -7.616000000     2.800000000
H    -3.676000000    -7.164000000     2.626000000
H    -5.166000000    -7.071000000     2.379000000
O    -7.876000000    -4.044000000    -4.117000000
H    -8.669000000    -4.315000000    -3.654000000
H    -7.188000000    -4.073000000    -3.452000000
O    -3.362000000    -9.805000000     1.640000000
H    -2.498000000    -9.665000000     2.028000000
H    -3.869000000    -9.035000000     1.901000000
O    -2.787000000    -7.801000000    -1.157000000
H    -2.676000000    -6.969000000    -0.697000000
H    -3.679000000    -8.076000000    -0.943000000
O    -7.890000000    -6.966000000    -1.816000000
H    -7.636000000    -7.834000000    -1.503000000
H    -8.666000000    -7.123000000    -2.353000000
O    -8.632000000    -2.150000000     4.151000000
H    -8.895000000    -1.231000000     4.100000000
H    -9.433000000    -2.639000000     3.964000000
O    -3.769000000    -4.313000000     4.562000000
H    -4.668000000    -4.628000000     4.654000000
H    -3.692000000    -4.074000000     3.638000000
O    -4.991000000    -4.367000000    -2.337000000
H    -4.831000000    -4.172000000    -1.414000000
H    -4.882000000    -3.526000000    -2.782000000
O    -4.857000000    -3.212000000     7.359000000
H    -4.609000000    -3.589000000     6.515000000
H    -5.718000000    -2.824000000     7.204000000
O    -5.897000000    -6.682000000    -3.794000000
H    -5.476000000    -5.927000000    -3.383000000
H    -6.740000000    -6.759000000    -3.347000000
O    -6.660000000    -4.412000000     4.614000000
H    -6.673000000    -4.839000000     3.758000000
H    -7.175000000    -3.615000000     4.492000000
O    -5.801000000    -0.915000000     1.862000000
H    -5.913000000    -0.578000000     2.751000000
H    -5.396000000    -1.774000000     1.981000000
O    -7.889000000    -4.534000000    -0.143000000
H    -7.051000000    -4.108000000    -0.322000000
H    -7.922000000    -5.266000000    -0.760000000
O    -6.290000000    -5.553000000     2.231000000
H    -5.472000000    -5.128000000     1.977000000
H    -6.884000000    -5.388000000     1.499000000
O    -6.211000000    -0.509000000     4.401000000
H    -6.445000000    -0.196000000     5.275000000
H    -6.836000000    -1.211000000     4.222000000
O    -2.256000000    -6.582000000     5.401000000
H    -2.739000000    -5.796000000     5.143000000
H    -2.306000000    -6.590000000     6.357000000
O    -7.499000000     0.957000000     0.342000000
H    -6.916000000     0.493000000     0.942000000
H    -7.784000000     0.288000000    -0.281000000
O    -2.617000000    -6.442000000     1.167000000
H    -1.703000000    -6.320000000     1.423000000
H    -3.056000000    -5.642000000     1.457000000
