215
-1452.73572
C    -2.901000000     2.681000000     3.548000000
H    -3.095000000     3.534000000     2.902000000
C    -1.589000000     2.208000000     3.699000000
C    -1.406000000     1.137000000     4.540000000
H    -0.413000000     0.743000000     4.744000000
C    -0.392000000     2.862000000     3.035000000
O    -0.630000000     4.261000000     2.595000000
H    -0.298000000     2.289000000     2.101000000
O     0.773000000     2.693000000     3.862000000
C     1.954000000     2.314000000     3.293000000
C     2.415000000     1.027000000     3.582000000
H     1.909000000     0.337000000     4.252000000
C     3.543000000     0.552000000     2.948000000
O     3.874000000    -0.776000000     3.076000000
C     4.263000000     1.404000000     2.043000000
C     5.358000000     0.943000000     1.151000000
H     6.081000000     1.721000000     0.896000000
C     4.808000000     0.263000000    -0.076000000
C     4.650000000     0.970000000    -1.284000000
H     4.868000000     2.030000000    -1.386000000
H     5.994000000     0.325000000     1.789000000
C     3.804000000     2.726000000     1.923000000
H     4.354000000     3.321000000     1.198000000
C     2.650000000     3.200000000     2.495000000
C     2.215000000     4.624000000     2.172000000
H     3.054000000     5.313000000     2.048000000
H     1.744000000     4.958000000     3.099000000
C     1.157000000     4.679000000     1.007000000
C     1.469000000     4.744000000    -0.322000000
H     2.520000000     4.808000000    -0.593000000
C    -0.203000000     4.671000000     1.390000000
C    -1.167000000     4.550000000     0.414000000
H    -2.184000000     4.280000000     0.685000000
C    -0.799000000     4.491000000    -0.935000000
O    -1.822000000     4.271000000    -1.840000000
C    -1.896000000     2.972000000    -2.495000000
C    -3.373000000     2.451000000    -2.560000000
C    -3.806000000     1.692000000    -3.696000000
H    -3.098000000     1.615000000    -4.517000000
C    -4.142000000     2.495000000    -1.463000000
H    -3.818000000     3.068000000    -0.598000000
O    -1.181000000     3.006000000    -3.733000000
H    -1.457000000     2.273000000    -1.768000000
C     0.557000000     4.639000000    -1.399000000
C     0.917000000     4.718000000    -2.843000000
H     1.678000000     5.477000000    -3.030000000
H     0.077000000     5.170000000    -3.376000000
C     1.218000000     3.415000000    -3.527000000
C     2.528000000     2.921000000    -3.618000000
H     3.404000000     3.444000000    -3.245000000
C     0.095000000     2.589000000    -3.825000000
C     0.317000000     1.363000000    -4.394000000
H    -0.544000000     0.774000000    -4.702000000
C     1.600000000     0.858000000    -4.482000000
O     1.734000000    -0.484000000    -4.728000000
C     1.853000000    -1.460000000    -3.619000000
C     1.011000000    -2.675000000    -3.733000000
C    -0.376000000    -2.567000000    -4.020000000
H    -0.863000000    -1.656000000    -4.358000000
C     1.452000000    -3.938000000    -3.379000000
H     2.518000000    -4.100000000    -3.245000000
O     3.302000000    -1.700000000    -3.450000000
H     1.639000000    -1.017000000    -2.635000000
C     2.704000000     1.591000000    -3.976000000
C     4.122000000     0.997000000    -3.845000000
H     4.890000000     1.773000000    -3.832000000
H     4.392000000     0.402000000    -4.720000000
C     4.198000000     0.312000000    -2.478000000
C     3.819000000    -1.024000000    -2.374000000
C     4.018000000    -1.786000000    -1.177000000
H     3.666000000    -2.815000000    -1.183000000
C     4.464000000    -1.084000000    -0.045000000
O     4.535000000    -1.848000000     1.139000000
C     3.364000000    -1.687000000     2.038000000
H     2.551000000    -1.193000000     1.486000000
C     2.831000000    -2.991000000     2.640000000
C     2.253000000    -2.995000000     3.888000000
H     2.359000000    -2.069000000     4.448000000
C     2.834000000    -4.209000000     1.937000000
H     3.272000000    -4.178000000     0.943000000
C     2.124000000    -5.385000000     2.394000000
O     2.036000000    -6.539000000     1.630000000
C     1.507000000    -5.260000000     3.695000000
H     0.899000000    -6.072000000     4.086000000
C     1.537000000    -4.063000000     4.398000000
O     0.900000000    -4.045000000     5.696000000
C     0.386000000    -2.880000000     6.260000000
C    -0.711000000    -2.270000000     5.749000000
H    -1.131000000    -2.742000000     4.865000000
C     0.903000000    -2.392000000     7.493000000
H     1.768000000    -2.929000000     7.873000000
C     0.300000000    -1.260000000     8.104000000
H     0.700000000    -0.778000000     8.992000000
C    -0.744000000    -0.618000000     7.470000000
H    -1.289000000     0.211000000     7.915000000
C    -1.323000000    -1.189000000     6.386000000
O    -2.463000000    -0.684000000     5.828000000
C    -2.510000000     0.550000000     5.195000000
C    -3.811000000     1.050000000     5.023000000
H    -4.684000000     0.593000000     5.482000000
C    -4.031000000     2.209000000     4.266000000
O    -5.270000000     2.837000000     4.062000000
C    -5.682000000     3.278000000     2.851000000
C    -5.968000000     2.412000000     1.840000000
H    -5.812000000     1.362000000     2.076000000
C    -5.850000000     4.681000000     2.624000000
H    -5.592000000     5.426000000     3.372000000
C    -6.221000000     5.071000000     1.387000000
H    -6.497000000     6.117000000     1.274000000
C    -6.410000000     4.227000000     0.310000000
H    -6.782000000     4.567000000    -0.653000000
C    -6.219000000     2.893000000     0.588000000
O    -6.238000000     1.906000000    -0.412000000
C    -5.397000000     1.944000000    -1.462000000
C    -5.846000000     1.229000000    -2.556000000
H    -6.784000000     0.684000000    -2.496000000
C    -5.049000000     1.114000000    -3.688000000
O    -5.471000000     0.297000000    -4.617000000
C    -4.539000000    -0.607000000    -5.167000000
C    -3.957000000    -1.538000000    -4.283000000
H    -4.162000000    -1.633000000    -3.220000000
C    -4.135000000    -0.440000000    -6.485000000
H    -4.611000000     0.336000000    -7.079000000
C    -3.271000000    -1.398000000    -7.054000000
H    -2.921000000    -1.219000000    -8.067000000
C    -2.790000000    -2.394000000    -6.236000000
H    -2.169000000    -3.213000000    -6.589000000
C    -3.107000000    -2.458000000    -4.889000000
O    -2.595000000    -3.483000000    -4.072000000
C    -1.220000000    -3.613000000    -3.815000000
C    -0.742000000    -4.882000000    -3.509000000
H    -1.461000000    -5.695000000    -3.458000000
C     0.642000000    -5.045000000    -3.265000000
O     1.211000000    -6.270000000    -2.960000000
C     2.147000000    -6.492000000    -2.009000000
C     3.473000000    -6.915000000    -2.220000000
H     3.957000000    -6.862000000    -3.192000000
C     4.265000000    -7.217000000    -1.140000000
H     5.280000000    -7.564000000    -1.316000000
C     3.820000000    -7.182000000     0.167000000
H     4.448000000    -7.375000000     1.033000000
C     2.543000000    -6.656000000     0.373000000
C     1.722000000    -6.394000000    -0.726000000
H     0.697000000    -6.067000000    -0.574000000
C    -1.099000000    -1.839000000     1.322000000
H    -1.123000000    -2.227000000     2.336000000
C    -0.225000000    -0.803000000     1.064000000
H     0.420000000    -0.426000000     1.854000000
C    -0.158000000    -0.195000000    -0.221000000
H     0.459000000     0.677000000    -0.345000000
C    -1.017000000    -0.593000000    -1.232000000
H    -0.830000000    -0.166000000    -2.214000000
C    -1.881000000    -1.656000000    -0.975000000
H    -2.569000000    -1.992000000    -1.746000000
C    -1.959000000    -2.211000000     0.302000000
C    -3.041000000    -3.141000000     0.714000000
O    -3.836000000    -3.524000000    -0.099000000
O    -3.205000000    -3.416000000     1.893000000
O    -4.764000000    -8.113000000     1.086000000
H    -4.786000000    -7.261000000     1.522000000
H    -4.676000000    -8.745000000     1.800000000
O    -8.054000000    -4.433000000    -2.737000000
H    -8.025000000    -5.065000000    -2.019000000
H    -7.185000000    -4.031000000    -2.738000000
O    -3.353000000    -6.236000000    -0.791000000
H    -4.061000000    -6.845000000    -0.584000000
H    -3.795000000    -5.473000000    -1.164000000
O    -7.879000000    -1.821000000    -1.235000000
H    -7.176000000    -2.061000000    -0.631000000
H    -8.433000000    -1.224000000    -0.732000000
O    -1.543000000    -6.841000000     5.570000000
H    -1.433000000    -6.434000000     4.710000000
H    -1.261000000    -7.747000000     5.443000000
O    -4.786000000    -2.900000000     3.954000000
H    -5.045000000    -3.766000000     4.268000000
H    -4.068000000    -3.071000000     3.344000000
O    -4.787000000    -4.358000000    -2.591000000
H    -4.511000000    -3.886000000    -1.805000000
H    -4.150000000    -4.103000000    -3.258000000
O    -5.862000000    -5.376000000     4.972000000
H    -5.948000000    -5.690000000     4.072000000
H    -6.763000000    -5.293000000     5.284000000
O    -1.371000000    -7.407000000     0.941000000
H    -1.908000000    -7.163000000     0.187000000
H    -1.576000000    -6.748000000     1.604000000
O    -8.241000000    -6.546000000     3.208000000
H    -8.145000000    -6.093000000     2.371000000
H    -8.790000000    -7.304000000     3.009000000
O    -4.982000000    -2.282000000     6.605000000
H    -4.626000000    -2.347000000     5.718000000
H    -5.176000000    -1.351000000     6.717000000
O    -6.356000000    -2.924000000     0.489000000
H    -6.059000000    -2.651000000     1.357000000
H    -5.550000000    -3.027000000    -0.018000000
O    -7.716000000    -5.230000000     0.932000000
H    -7.865000000    -5.791000000     0.171000000
H    -7.295000000    -4.448000000     0.574000000
O    -7.267000000    -8.673000000     0.219000000
H    -7.092000000    -9.530000000    -0.172000000
H    -6.400000000    -8.303000000     0.383000000
O    -5.030000000    -5.432000000     2.173000000
H    -4.326000000    -4.827000000     1.939000000
H    -5.822000000    -5.022000000     1.826000000
O    -6.442000000    -1.061000000     3.184000000
H    -5.867000000    -1.694000000     3.614000000
H    -6.540000000    -0.355000000     3.822000000
O    -3.865000000    -6.615000000    -4.475000000
H    -3.467000000    -6.260000000    -3.680000000
H    -3.147000000    -7.059000000    -4.925000000
O    -8.747000000     0.036000000     0.988000000
H    -7.977000000     0.232000000     1.522000000
H    -9.243000000    -0.598000000     1.507000000
O    -2.095000000    -5.800000000     3.096000000
H    -2.928000000    -6.141000000     2.771000000
H    -2.111000000    -4.871000000     2.867000000
