215
-1464.20090
C    -3.649000000    -3.959000000    -1.571000000
H    -3.749000000    -3.623000000    -2.600000000
C    -3.942000000    -3.125000000    -0.553000000
C    -3.890000000    -3.565000000     0.786000000
H    -4.107000000    -2.879000000     1.600000000
C    -4.111000000    -1.637000000    -0.837000000
O    -4.411000000    -1.345000000    -2.228000000
H    -3.065000000    -1.339000000    -0.674000000
O    -5.017000000    -1.149000000     0.202000000
C    -4.578000000     0.038000000     0.778000000
C    -4.104000000    -0.020000000     2.089000000
H    -4.206000000    -0.909000000     2.707000000
C    -3.575000000     1.165000000     2.648000000
O    -2.815000000     1.092000000     3.797000000
C    -3.517000000     2.381000000     1.935000000
C    -3.030000000     3.684000000     2.525000000
H    -3.645000000     4.470000000     2.082000000
C    -1.532000000     3.965000000     2.275000000
C    -1.154000000     4.613000000     1.111000000
H    -1.916000000     5.032000000     0.460000000
H    -3.350000000     3.668000000     3.569000000
C    -4.072000000     2.366000000     0.637000000
H    -3.921000000     3.239000000     0.008000000
C    -4.674000000     1.250000000     0.076000000
C    -5.278000000     1.275000000    -1.378000000
H    -5.680000000     2.259000000    -1.628000000
H    -6.107000000     0.565000000    -1.387000000
C    -4.147000000     1.073000000    -2.396000000
C    -3.381000000     2.146000000    -2.842000000
H    -3.618000000     3.126000000    -2.435000000
C    -3.771000000    -0.239000000    -2.699000000
C    -2.762000000    -0.516000000    -3.596000000
H    -2.487000000    -1.551000000    -3.779000000
C    -2.035000000     0.550000000    -4.076000000
O    -0.983000000     0.354000000    -4.905000000
C     0.287000000     0.481000000    -4.232000000
C     1.240000000    -0.698000000    -4.500000000
C     2.651000000    -0.659000000    -4.284000000
H     3.137000000     0.299000000    -4.121000000
C     0.623000000    -1.996000000    -4.670000000
H    -0.451000000    -2.120000000    -4.786000000
O     0.875000000     1.738000000    -4.628000000
H     0.171000000     0.376000000    -3.144000000
C    -2.318000000     1.866000000    -3.649000000
C    -1.540000000     3.054000000    -4.188000000
H    -2.279000000     3.855000000    -4.121000000
H    -1.365000000     2.935000000    -5.259000000
C    -0.342000000     3.387000000    -3.355000000
C    -0.372000000     4.359000000    -2.360000000
H    -1.307000000     4.878000000    -2.164000000
C     0.881000000     2.728000000    -3.637000000
C     2.012000000     3.008000000    -2.915000000
H     2.988000000     2.586000000    -3.142000000
C     1.908000000     3.906000000    -1.891000000
O     3.013000000     4.024000000    -1.044000000
C     2.928000000     3.259000000     0.189000000
C     4.202000000     2.525000000     0.563000000
C     5.123000000     2.184000000    -0.469000000
H     5.065000000     2.487000000    -1.511000000
C     4.432000000     2.076000000     1.889000000
H     3.619000000     2.279000000     2.581000000
O     2.537000000     4.147000000     1.307000000
H     2.166000000     2.468000000     0.129000000
C     0.798000000     4.592000000    -1.574000000
C     0.736000000     5.539000000    -0.430000000
H     0.016000000     6.336000000    -0.630000000
H     1.757000000     5.910000000    -0.327000000
C     0.213000000     4.757000000     0.733000000
C     1.162000000     4.156000000     1.575000000
C     0.778000000     3.458000000     2.714000000
H     1.512000000     2.848000000     3.234000000
C    -0.554000000     3.354000000     3.037000000
O    -0.913000000     2.570000000     4.090000000
C    -1.337000000     1.239000000     3.712000000
H    -1.012000000     0.914000000     2.713000000
C    -0.781000000     0.211000000     4.640000000
C    -1.513000000    -0.912000000     5.045000000
H    -2.552000000    -0.962000000     4.729000000
C     0.474000000     0.400000000     5.152000000
H     0.958000000     1.327000000     4.856000000
C     1.078000000    -0.509000000     6.027000000
O     2.302000000    -0.287000000     6.539000000
C     0.378000000    -1.684000000     6.396000000
H     0.798000000    -2.437000000     7.059000000
C    -0.939000000    -1.879000000     5.883000000
O    -1.618000000    -3.039000000     6.135000000
C    -2.708000000    -3.447000000     5.444000000
C    -2.575000000    -4.308000000     4.286000000
H    -1.583000000    -4.527000000     3.898000000
C    -3.998000000    -3.093000000     5.894000000
H    -4.080000000    -2.607000000     6.863000000
C    -5.170000000    -3.496000000     5.159000000
H    -6.085000000    -3.097000000     5.587000000
C    -5.047000000    -4.293000000     3.992000000
H    -5.906000000    -4.363000000     3.329000000
C    -3.736000000    -4.697000000     3.575000000
O    -3.582000000    -5.414000000     2.363000000
C    -3.570000000    -4.871000000     1.059000000
C    -3.223000000    -5.707000000     0.031000000
H    -2.986000000    -6.719000000     0.349000000
C    -3.313000000    -5.256000000    -1.298000000
O    -2.876000000    -6.098000000    -2.325000000
C    -2.345000000    -5.685000000    -3.532000000
C    -0.990000000    -5.267000000    -3.629000000
H    -0.367000000    -5.426000000    -2.752000000
C    -3.101000000    -5.743000000    -4.659000000
H    -4.100000000    -6.173000000    -4.646000000
C    -2.641000000    -5.192000000    -5.875000000
H    -3.225000000    -5.115000000    -6.789000000
C    -1.309000000    -4.777000000    -5.913000000
H    -0.880000000    -4.298000000    -6.790000000
C    -0.486000000    -4.856000000    -4.861000000
O     0.841000000    -4.550000000    -4.890000000
C     1.371000000    -3.160000000    -4.775000000
C     2.769000000    -3.069000000    -4.651000000
H     3.337000000    -3.995000000    -4.679000000
C     3.409000000    -1.809000000    -4.419000000
O     4.746000000    -1.875000000    -4.122000000
C     5.591000000    -0.682000000    -3.897000000
C     5.940000000    -0.373000000    -2.595000000
H     5.642000000    -1.012000000    -1.767000000
C     6.192000000    -0.032000000    -5.025000000
H     6.023000000    -0.415000000    -6.028000000
C     7.041000000     1.087000000    -4.809000000
H     7.532000000     1.599000000    -5.633000000
C     7.330000000     1.424000000    -3.466000000
H     8.022000000     2.238000000    -3.262000000
C     6.688000000     0.758000000    -2.400000000
O     7.108000000     1.172000000    -1.159000000
C     6.249000000     1.415000000    -0.152000000
C     6.440000000     0.957000000     1.129000000
H     7.293000000     0.358000000     1.437000000
C     5.480000000     1.174000000     2.136000000
O     5.667000000     0.530000000     3.338000000
C     4.974000000     0.959000000     4.447000000
C     5.320000000     2.132000000     5.104000000
H     6.069000000     2.833000000     4.746000000
C     4.662000000     2.431000000     6.293000000
H     4.929000000     3.339000000     6.827000000
C     3.646000000     1.604000000     6.785000000
H     3.273000000     1.717000000     7.799000000
C     3.216000000     0.521000000     6.025000000
C     3.921000000     0.215000000     4.845000000
H     3.830000000    -0.798000000     4.461000000
C     2.475000000    -1.422000000     0.215000000
H     3.435000000    -1.480000000     0.721000000
C     1.740000000    -0.233000000     0.332000000
H     2.053000000     0.546000000     1.022000000
C     0.574000000    -0.140000000    -0.402000000
H     0.050000000     0.730000000    -0.355000000
C     0.041000000    -1.206000000    -1.117000000
H    -0.943000000    -1.135000000    -1.574000000
C     0.807000000    -2.373000000    -1.198000000
H     0.404000000    -3.241000000    -1.713000000
C     2.107000000    -2.465000000    -0.601000000
C     2.976000000    -3.697000000    -0.607000000
O     2.560000000    -4.751000000    -1.135000000
O     4.133000000    -3.713000000    -0.170000000
O     6.770000000    -4.816000000    -4.596000000
H     6.685000000    -4.722000000    -5.545000000
H     5.935000000    -5.192000000    -4.317000000
O     2.015000000   -10.029000000    -0.263000000
H     1.458000000   -10.344000000    -0.975000000
H     1.789000000    -9.102000000    -0.175000000
O     2.766000000    -3.289000000     4.127000000
H     1.922000000    -2.981000000     3.797000000
H     3.114000000    -3.836000000     3.423000000
O     7.698000000    -4.388000000    -2.162000000
H     7.372000000    -5.142000000    -1.670000000
H     7.204000000    -4.405000000    -2.982000000
O     2.338000000    -6.517000000    -3.253000000
H     3.073000000    -6.452000000    -3.863000000
H     2.363000000    -5.697000000    -2.759000000
O     0.395000000    -5.338000000     4.865000000
H     0.585000000    -4.564000000     4.334000000
H     0.245000000    -4.993000000     5.745000000
O     5.694000000    -2.364000000     2.929000000
H     5.937000000    -2.446000000     2.007000000
H     4.745000000    -2.245000000     2.916000000
O     0.192000000    -8.299000000    -2.351000000
H     0.693000000    -7.612000000    -2.790000000
H     0.295000000    -8.110000000    -1.418000000
O     0.464000000    -3.450000000     2.888000000
H     0.295000000    -4.064000000     2.174000000
H    -0.017000000    -2.660000000     2.644000000
O     4.240000000    -8.369000000    -1.889000000
H     3.321000000    -8.101000000    -1.896000000
H     4.306000000    -8.977000000    -1.152000000
O    -1.504000000    -1.647000000     1.975000000
H    -2.441000000    -1.510000000     1.831000000
H    -1.090000000    -0.860000000     1.622000000
O     6.701000000    -4.500000000     4.169000000
H     6.085000000    -3.860000000     3.814000000
H     6.369000000    -5.346000000     3.867000000
O     0.145000000    -5.743000000     1.320000000
H    -0.025000000    -5.695000000     0.379000000
H    -0.488000000    -6.382000000     1.646000000
O     3.979000000    -5.115000000     2.466000000
H     4.280000000    -4.731000000     1.642000000
H     4.633000000    -5.782000000     2.673000000
O     3.577000000    -7.820000000     3.700000000
H     3.214000000    -6.935000000     3.684000000
H     3.064000000    -8.301000000     3.050000000
O     1.897000000    -7.272000000    -0.191000000
H     2.207000000    -6.471000000    -0.614000000
H     1.308000000    -6.966000000     0.499000000
O     4.653000000    -6.789000000    -4.780000000
H     5.001000000    -6.966000000    -5.653000000
H     5.285000000    -7.192000000    -4.184000000
O     6.686000000    -2.892000000     0.064000000
H     5.769000000    -2.984000000    -0.196000000
H     7.176000000    -3.346000000    -0.622000000
O     5.840000000    -6.001000000    -0.540000000
H     5.272000000    -5.254000000    -0.353000000
H     5.271000000    -6.630000000    -0.984000000
