215
-1476.58181
C    -1.838000000     1.707000000     4.580000000
H    -2.351000000     2.215000000     3.767000000
C    -0.418000000     1.729000000     4.574000000
C     0.294000000     0.926000000     5.420000000
H     1.378000000     0.887000000     5.359000000
C     0.269000000     2.535000000     3.440000000
O    -0.144000000     3.900000000     3.153000000
H     0.271000000     2.002000000     2.478000000
O     1.710000000     2.601000000     3.771000000
C     2.615000000     2.415000000     2.787000000
C     3.389000000     1.272000000     2.872000000
H     3.078000000     0.505000000     3.577000000
C     4.176000000     0.901000000     1.795000000
O     4.546000000    -0.408000000     1.632000000
C     4.360000000     1.799000000     0.737000000
C     5.255000000     1.410000000    -0.473000000
H     5.802000000     2.303000000    -0.782000000
C     4.468000000     0.761000000    -1.592000000
C     3.906000000     1.479000000    -2.660000000
H     4.107000000     2.546000000    -2.708000000
H     5.972000000     0.606000000    -0.292000000
C     3.754000000     3.050000000     0.749000000
H     3.831000000     3.763000000    -0.068000000
C     2.872000000     3.355000000     1.769000000
C     2.158000000     4.726000000     1.739000000
H     2.744000000     5.447000000     1.166000000
H     2.153000000     5.088000000     2.770000000
C     0.819000000     4.631000000     1.139000000
C     0.691000000     4.887000000    -0.241000000
H     1.473000000     5.258000000    -0.899000000
C    -0.318000000     4.300000000     1.854000000
C    -1.542000000     4.203000000     1.270000000
H    -2.414000000     3.948000000     1.866000000
C    -1.686000000     4.429000000    -0.107000000
O    -2.887000000     4.047000000    -0.667000000
C    -2.967000000     2.819000000    -1.423000000
C    -4.309000000     2.088000000    -1.154000000
C    -4.886000000     1.227000000    -2.071000000
H    -4.480000000     1.234000000    -3.079000000
C    -4.905000000     2.224000000     0.109000000
H    -4.471000000     2.911000000     0.831000000
O    -2.699000000     2.946000000    -2.853000000
H    -2.268000000     2.089000000    -0.989000000
C    -0.542000000     4.683000000    -0.886000000
C    -0.672000000     4.945000000    -2.331000000
H    -0.080000000     5.806000000    -2.649000000
H    -1.678000000     5.342000000    -2.478000000
C    -0.353000000     3.726000000    -3.196000000
C     0.941000000     3.399000000    -3.627000000
H     1.765000000     4.106000000    -3.573000000
C    -1.400000000     2.783000000    -3.363000000
C    -1.229000000     1.618000000    -4.084000000
H    -2.137000000     1.038000000    -4.231000000
C     0.064000000     1.200000000    -4.389000000
O     0.153000000    -0.058000000    -4.970000000
C     0.779000000    -1.107000000    -4.155000000
C     0.100000000    -2.419000000    -4.208000000
C    -1.297000000    -2.464000000    -4.323000000
H    -1.898000000    -1.559000000    -4.362000000
C     0.754000000    -3.665000000    -4.003000000
H     1.811000000    -3.746000000    -3.763000000
O     2.154000000    -1.195000000    -4.516000000
H     0.731000000    -1.042000000    -3.058000000
C     1.134000000     2.124000000    -4.233000000
C     2.486000000     1.708000000    -4.674000000
H     3.073000000     2.568000000    -5.002000000
H     2.369000000     1.062000000    -5.546000000
C     3.166000000     0.898000000    -3.639000000
C     3.087000000    -0.539000000    -3.682000000
C     3.653000000    -1.281000000    -2.665000000
H     3.497000000    -2.350000000    -2.542000000
C     4.241000000    -0.660000000    -1.594000000
O     4.625000000    -1.355000000    -0.514000000
C     3.748000000    -1.233000000     0.712000000
H     2.755000000    -0.810000000     0.501000000
C     3.495000000    -2.640000000     1.350000000
C     3.303000000    -2.688000000     2.719000000
H     3.285000000    -1.795000000     3.338000000
C     3.332000000    -3.768000000     0.518000000
H     3.470000000    -3.797000000    -0.559000000
C     3.050000000    -5.009000000     1.077000000
O     2.936000000    -6.173000000     0.300000000
C     2.831000000    -5.019000000     2.486000000
H     2.530000000    -5.970000000     2.920000000
C     2.850000000    -3.904000000     3.268000000
O     2.410000000    -4.015000000     4.596000000
C     2.536000000    -2.947000000     5.534000000
C     1.396000000    -2.233000000     5.943000000
H     0.424000000    -2.375000000     5.478000000
C     3.821000000    -2.676000000     6.040000000
H     4.715000000    -3.145000000     5.635000000
C     3.869000000    -1.686000000     7.012000000
H     4.823000000    -1.433000000     7.466000000
C     2.775000000    -1.009000000     7.490000000
H     2.918000000    -0.251000000     8.256000000
C     1.540000000    -1.267000000     6.840000000
O     0.414000000    -0.569000000     7.264000000
C    -0.389000000     0.186000000     6.412000000
C    -1.785000000     0.099000000     6.479000000
H    -2.281000000    -0.532000000     7.212000000
C    -2.477000000     0.890000000     5.556000000
O    -3.853000000     0.914000000     5.632000000
C    -4.653000000     1.765000000     4.842000000
C    -5.357000000     1.238000000     3.702000000
H    -5.439000000     0.189000000     3.429000000
C    -4.725000000     3.135000000     5.071000000
H    -4.076000000     3.566000000     5.829000000
C    -5.425000000     3.983000000     4.203000000
H    -5.454000000     5.058000000     4.356000000
C    -6.130000000     3.479000000     3.132000000
H    -6.771000000     4.078000000     2.490000000
C    -6.025000000     2.138000000     2.870000000
O    -6.672000000     1.715000000     1.712000000
C    -6.101000000     1.584000000     0.449000000
C    -6.664000000     0.733000000    -0.480000000
H    -7.577000000     0.216000000    -0.196000000
C    -6.053000000     0.540000000    -1.718000000
O    -6.500000000    -0.461000000    -2.553000000
C    -5.838000000    -0.920000000    -3.752000000
C    -4.970000000    -2.007000000    -3.592000000
H    -4.803000000    -2.404000000    -2.594000000
C    -5.994000000    -0.426000000    -5.092000000
H    -6.605000000     0.472000000    -5.143000000
C    -5.140000000    -0.906000000    -6.080000000
H    -5.129000000    -0.411000000    -7.048000000
C    -4.153000000    -1.910000000    -5.813000000
H    -3.493000000    -2.274000000    -6.596000000
C    -4.196000000    -2.584000000    -4.577000000
O    -3.347000000    -3.684000000    -4.314000000
C    -2.003000000    -3.665000000    -4.465000000
C    -1.325000000    -4.865000000    -4.279000000
H    -1.814000000    -5.832000000    -4.194000000
C     0.023000000    -4.869000000    -4.014000000
O     0.643000000    -6.038000000    -3.880000000
C     1.859000000    -6.197000000    -3.250000000
C     3.079000000    -6.192000000    -3.909000000
H     3.073000000    -6.111000000    -4.993000000
C     4.272000000    -6.276000000    -3.194000000
H     5.237000000    -6.120000000    -3.670000000
C     4.208000000    -6.286000000    -1.752000000
H     5.105000000    -6.382000000    -1.145000000
C     3.009000000    -6.185000000    -1.075000000
C     1.802000000    -6.171000000    -1.833000000
H     0.850000000    -6.202000000    -1.308000000
C    -0.489000000    -1.895000000     1.239000000
H    -0.302000000    -2.431000000     2.165000000
C     0.103000000    -0.638000000     1.014000000
H     0.726000000    -0.185000000     1.782000000
C    -0.140000000    -0.021000000    -0.191000000
H     0.278000000     0.964000000    -0.460000000
C    -0.982000000    -0.593000000    -1.104000000
H    -1.346000000     0.028000000    -1.918000000
C    -1.523000000    -1.816000000    -0.959000000
H    -2.239000000    -2.256000000    -1.649000000
C    -1.318000000    -2.497000000     0.282000000
C    -2.140000000    -3.708000000     0.718000000
O    -2.855000000    -4.259000000    -0.142000000
O    -1.853000000    -4.374000000     1.737000000
O    -4.304000000    -6.819000000     4.716000000
H    -4.023000000    -5.907000000     4.641000000
H    -3.933000000    -7.248000000     3.945000000
O    -3.410000000    -4.453000000     4.178000000
H    -3.706000000    -3.545000000     4.111000000
H    -2.811000000    -4.566000000     3.440000000
O    -5.878000000    -6.157000000     0.119000000
H    -6.570000000    -6.601000000    -0.370000000
H    -6.138000000    -6.244000000     1.036000000
O    -0.069000000    -6.248000000     2.552000000
H     0.075000000    -6.930000000     1.896000000
H    -0.744000000    -5.687000000     2.170000000
O    -7.300000000    -1.744000000     2.683000000
H    -8.147000000    -1.315000000     2.567000000
H    -6.960000000    -1.849000000     1.794000000
O    -5.866000000    -2.451000000     0.265000000
H    -5.326000000    -3.236000000     0.173000000
H    -6.760000000    -2.756000000     0.114000000
O    -3.151000000    -1.842000000     3.915000000
H    -3.515000000    -1.350000000     3.179000000
H    -2.237000000    -1.564000000     3.961000000
O    -6.964000000    -5.995000000     2.748000000
H    -6.784000000    -6.692000000     3.379000000
H    -6.848000000    -5.186000000     3.246000000
O    -4.823000000    -2.478000000     6.141000000
H    -4.447000000    -2.086000000     6.929000000
H    -4.179000000    -2.301000000     5.455000000
O    -7.021000000    -5.525000000    -2.921000000
H    -7.494000000    -6.295000000    -2.603000000
H    -6.232000000    -5.488000000    -2.380000000
O    -3.648000000    -6.644000000     1.860000000
H    -2.941000000    -6.010000000     1.740000000
H    -4.088000000    -6.675000000     1.011000000
O    -1.450000000    -8.536000000     4.215000000
H    -0.578000000    -8.183000000     4.036000000
H    -1.609000000    -8.326000000     5.135000000
O    -4.119000000    -5.567000000    -2.291000000
H    -3.880000000    -5.172000000    -1.452000000
H    -3.629000000    -5.063000000    -2.941000000
O     0.081000000    -8.338000000     0.142000000
H     0.518000000    -7.888000000    -0.581000000
H    -0.850000000    -8.164000000     0.006000000
O    -3.686000000    -9.298000000     2.665000000
H    -2.813000000    -9.165000000     3.033000000
H    -3.878000000    -8.482000000     2.202000000
O    -0.560000000    -4.063000000     4.016000000
H     0.167000000    -4.641000000     3.785000000
H    -1.068000000    -3.982000000     3.209000000
O    -1.328000000    -4.596000000     6.731000000
H    -2.194000000    -4.950000000     6.936000000
H    -1.329000000    -4.499000000     5.779000000
O    -2.040000000    -6.815000000    -0.812000000
H    -2.338000000    -5.938000000    -0.567000000
H    -2.797000000    -7.212000000    -1.244000000
O    -3.967000000    -0.539000000     1.438000000
H    -4.730000000    -1.035000000     1.139000000
H    -3.694000000    -0.035000000     0.672000000
