215
-1464.96958
C    -0.551000000     2.634000000     4.799000000
H    -0.972000000     3.466000000     4.241000000
C     0.670000000     2.082000000     4.330000000
C     1.281000000     1.033000000     5.005000000
H     2.122000000     0.488000000     4.585000000
C     1.311000000     2.604000000     3.028000000
O     1.111000000     3.992000000     2.824000000
H     0.920000000     2.038000000     2.171000000
O     2.732000000     2.338000000     3.158000000
C     3.465000000     1.959000000     2.072000000
C     3.790000000     0.618000000     1.971000000
H     3.475000000    -0.017000000     2.795000000
C     4.462000000     0.111000000     0.846000000
O     4.748000000    -1.245000000     0.710000000
C     4.745000000     1.050000000    -0.185000000
C     5.216000000     0.455000000    -1.491000000
H     5.721000000     1.234000000    -2.066000000
C     4.206000000    -0.225000000    -2.431000000
C     3.596000000     0.532000000    -3.446000000
H     3.812000000     1.597000000    -3.451000000
H     6.007000000    -0.281000000    -1.335000000
C     4.378000000     2.394000000    -0.099000000
H     4.394000000     3.023000000    -0.985000000
C     3.771000000     2.855000000     1.037000000
C     3.345000000     4.322000000     1.085000000
H     4.008000000     4.950000000     0.487000000
H     3.307000000     4.712000000     2.105000000
C     1.854000000     4.413000000     0.601000000
C     1.530000000     4.613000000    -0.733000000
H     2.317000000     4.854000000    -1.444000000
C     0.809000000     4.404000000     1.563000000
C    -0.490000000     4.693000000     1.157000000
H    -1.300000000     4.802000000     1.875000000
C    -0.784000000     4.746000000    -0.188000000
O    -2.073000000     4.450000000    -0.572000000
C    -2.363000000     3.178000000    -1.040000000
C    -3.716000000     2.625000000    -0.424000000
C    -4.521000000     1.693000000    -1.096000000
H    -4.263000000     1.290000000    -2.072000000
C    -4.047000000     3.066000000     0.848000000
H    -3.384000000     3.584000000     1.537000000
O    -2.532000000     3.349000000    -2.457000000
H    -1.585000000     2.423000000    -0.857000000
C     0.197000000     4.720000000    -1.149000000
C    -0.022000000     4.839000000    -2.662000000
H     0.857000000     5.348000000    -3.063000000
H    -0.905000000     5.431000000    -2.912000000
C    -0.280000000     3.456000000    -3.329000000
C     0.807000000     2.806000000    -3.886000000
H     1.768000000     3.314000000    -3.918000000
C    -1.519000000     2.827000000    -3.298000000
C    -1.723000000     1.619000000    -3.933000000
H    -2.691000000     1.140000000    -4.061000000
C    -0.595000000     0.977000000    -4.515000000
O    -0.883000000    -0.265000000    -4.964000000
C    -0.302000000    -1.353000000    -4.179000000
C    -1.201000000    -2.607000000    -4.122000000
C    -2.553000000    -2.397000000    -4.057000000
H    -2.944000000    -1.400000000    -3.871000000
C    -0.739000000    -3.926000000    -3.911000000
H     0.334000000    -4.061000000    -3.803000000
O     0.985000000    -1.766000000    -4.699000000
H    -0.233000000    -1.097000000    -3.112000000
C     0.653000000     1.588000000    -4.552000000
C     1.820000000     0.860000000    -5.250000000
H     2.493000000     1.567000000    -5.740000000
H     1.467000000     0.158000000    -6.008000000
C     2.579000000    -0.004000000    -4.250000000
C     2.096000000    -1.311000000    -4.015000000
C     2.702000000    -2.102000000    -3.049000000
H     2.371000000    -3.117000000    -2.843000000
C     3.780000000    -1.531000000    -2.270000000
O     4.312000000    -2.319000000    -1.284000000
C     3.847000000    -2.067000000    -0.001000000
H     2.940000000    -1.444000000    -0.037000000
C     3.435000000    -3.324000000     0.719000000
C     3.406000000    -3.283000000     2.140000000
H     3.750000000    -2.391000000     2.657000000
C     2.953000000    -4.481000000     0.085000000
H     3.062000000    -4.559000000    -0.993000000
C     2.337000000    -5.483000000     0.899000000
O     1.639000000    -6.545000000     0.378000000
C     2.351000000    -5.462000000     2.294000000
H     1.984000000    -6.298000000     2.884000000
C     2.829000000    -4.302000000     2.916000000
O     2.601000000    -4.234000000     4.276000000
C     2.937000000    -3.099000000     5.004000000
C     1.926000000    -2.347000000     5.646000000
H     0.879000000    -2.543000000     5.431000000
C     4.285000000    -2.868000000     5.314000000
H     5.040000000    -3.513000000     4.872000000
C     4.640000000    -1.914000000     6.232000000
H     5.648000000    -1.726000000     6.592000000
C     3.680000000    -1.118000000     6.741000000
H     3.991000000    -0.220000000     7.269000000
C     2.318000000    -1.296000000     6.472000000
O     1.371000000    -0.404000000     6.917000000
C     0.673000000     0.521000000     6.073000000
C    -0.548000000     1.011000000     6.505000000
H    -1.087000000     0.638000000     7.372000000
C    -1.172000000     2.073000000     5.892000000
O    -2.480000000     2.427000000     6.221000000
C    -3.310000000     3.216000000     5.439000000
C    -4.135000000     2.585000000     4.479000000
H    -3.923000000     1.548000000     4.227000000
C    -3.402000000     4.606000000     5.707000000
H    -2.720000000     5.067000000     6.418000000
C    -4.299000000     5.371000000     4.885000000
H    -4.251000000     6.448000000     5.025000000
C    -5.116000000     4.739000000     3.950000000
H    -5.863000000     5.298000000     3.393000000
C    -4.938000000     3.389000000     3.664000000
O    -5.785000000     2.902000000     2.719000000
C    -5.313000000     2.571000000     1.434000000
C    -6.158000000     1.814000000     0.656000000
H    -7.071000000     1.538000000     1.178000000
C    -5.726000000     1.259000000    -0.527000000
O    -6.572000000     0.268000000    -1.055000000
C    -6.422000000    -0.213000000    -2.287000000
C    -5.839000000    -1.480000000    -2.443000000
H    -5.717000000    -2.153000000    -1.598000000
C    -6.550000000     0.609000000    -3.406000000
H    -7.021000000     1.583000000    -3.302000000
C    -5.986000000     0.254000000    -4.659000000
H    -6.250000000     0.894000000    -5.497000000
C    -5.394000000    -1.029000000    -4.789000000
H    -4.877000000    -1.268000000    -5.715000000
C    -5.358000000    -1.886000000    -3.697000000
O    -4.880000000    -3.165000000    -3.915000000
C    -3.479000000    -3.372000000    -3.835000000
C    -3.044000000    -4.670000000    -3.714000000
H    -3.770000000    -5.476000000    -3.646000000
C    -1.635000000    -4.914000000    -3.701000000
O    -1.155000000    -6.186000000    -3.459000000
C     0.017000000    -6.463000000    -2.897000000
C     0.951000000    -7.196000000    -3.600000000
H     0.765000000    -7.410000000    -4.649000000
C     2.166000000    -7.548000000    -3.096000000
H     2.842000000    -8.147000000    -3.701000000
C     2.409000000    -7.228000000    -1.783000000
H     3.322000000    -7.327000000    -1.201000000
C     1.372000000    -6.732000000    -0.958000000
C     0.241000000    -6.258000000    -1.544000000
H    -0.581000000    -5.855000000    -0.959000000
C    -0.755000000    -2.309000000     1.058000000
H    -0.444000000    -2.995000000     1.842000000
C     0.066000000    -1.252000000     0.703000000
H     1.029000000    -1.211000000     1.205000000
C    -0.225000000    -0.325000000    -0.280000000
H     0.423000000     0.525000000    -0.431000000
C    -1.422000000    -0.480000000    -0.937000000
H    -1.784000000     0.088000000    -1.791000000
C    -2.317000000    -1.509000000    -0.649000000
H    -3.183000000    -1.630000000    -1.296000000
C    -1.930000000    -2.490000000     0.258000000
C    -2.857000000    -3.725000000     0.247000000
O    -4.025000000    -3.661000000    -0.097000000
O    -2.436000000    -4.810000000     0.602000000
O    -4.319000000    -7.340000000     5.294000000
H    -5.061000000    -7.291000000     4.692000000
H    -3.944000000    -6.459000000     5.284000000
O    -0.507000000    -4.530000000     3.922000000
H     0.444000000    -4.636000000     3.886000000
H    -0.837000000    -5.078000000     3.210000000
O    -3.881000000    -4.617000000     3.984000000
H    -2.951000000    -4.639000000     3.761000000
H    -4.313000000    -5.072000000     3.261000000
O    -6.057000000    -8.202000000    -0.610000000
H    -6.460000000    -7.561000000    -1.195000000
H    -5.142000000    -7.929000000    -0.549000000
O    -5.487000000    -1.721000000     1.021000000
H    -5.930000000    -1.256000000     0.312000000
H    -4.935000000    -2.365000000     0.576000000
O    -1.725000000    -2.469000000     5.286000000
H    -1.347000000    -3.145000000     4.723000000
H    -2.267000000    -1.943000000     4.698000000
O    -6.855000000    -1.245000000     3.590000000
H    -6.148000000    -1.587000000     4.137000000
H    -6.530000000    -1.336000000     2.694000000
O    -7.824000000    -3.611000000    -0.167000000
H    -8.672000000    -4.041000000    -0.273000000
H    -8.037000000    -2.683000000    -0.070000000
O    -5.134000000    -5.517000000     1.428000000
H    -4.651000000    -4.837000000     0.958000000
H    -5.382000000    -6.147000000     0.752000000
O    -6.127000000    -6.220000000    -3.764000000
H    -5.979000000    -5.616000000    -3.035000000
H    -5.537000000    -5.913000000    -4.452000000
O    -5.917000000    -4.779000000    -1.614000000
H    -6.702000000    -4.407000000    -1.212000000
H    -5.190000000    -4.335000000    -1.176000000
O    -3.544000000    -7.337000000    -0.308000000
H    -3.249000000    -6.459000000    -0.068000000
H    -2.742000000    -7.859000000    -0.342000000
O    -1.191000000    -8.866000000     0.626000000
H    -0.557000000    -9.227000000     1.246000000
H    -0.817000000    -9.053000000    -0.235000000
O    -1.166000000    -6.455000000     2.166000000
H    -1.604000000    -5.972000000     1.465000000
H    -1.265000000    -7.375000000     1.922000000
O    -1.646000000    -5.554000000     6.470000000
H    -1.605000000    -4.738000000     5.971000000
H    -1.732000000    -5.273000000     7.381000000
O    -8.300000000    -4.938000000     2.187000000
H    -7.783000000    -4.565000000     1.473000000
H    -8.185000000    -5.884000000     2.097000000
O    -4.473000000    -8.359000000     2.398000000
H    -3.684000000    -8.019000000     1.975000000
H    -5.129000000    -7.675000000     2.268000000
O    -5.654000000    -2.883000000     5.425000000
H    -5.128000000    -2.410000000     6.069000000
H    -5.026000000    -3.442000000     4.967000000
O    -3.799000000    -1.147000000     3.275000000
H    -4.563000000    -1.220000000     2.704000000
H    -3.167000000    -0.639000000     2.767000000
