215
-1457.61567
C    -0.660000000     3.198000000     4.245000000
H    -0.982000000     4.004000000     3.590000000
C     0.634000000     2.668000000     4.012000000
C     1.135000000     1.716000000     4.937000000
H     2.060000000     1.168000000     4.778000000
C     1.400000000     3.013000000     2.755000000
O     1.019000000     4.314000000     2.139000000
H     1.217000000     2.096000000     2.176000000
O     2.796000000     3.095000000     2.970000000
C     3.477000000     2.506000000     1.897000000
C     3.828000000     1.198000000     2.086000000
H     3.662000000     0.720000000     3.048000000
C     4.421000000     0.445000000     1.075000000
O     4.671000000    -0.932000000     1.289000000
C     4.704000000     1.046000000    -0.155000000
C     5.356000000     0.239000000    -1.218000000
H     6.015000000     0.817000000    -1.869000000
C     4.356000000    -0.550000000    -2.082000000
C     3.719000000     0.087000000    -3.202000000
H     4.013000000     1.117000000    -3.389000000
H     6.068000000    -0.458000000    -0.770000000
C     4.504000000     2.467000000    -0.292000000
H     4.767000000     3.002000000    -1.201000000
C     3.802000000     3.149000000     0.693000000
C     3.334000000     4.483000000     0.271000000
H     3.828000000     4.812000000    -0.645000000
H     3.317000000     5.213000000     1.083000000
C     1.845000000     4.388000000    -0.121000000
C     1.549000000     4.253000000    -1.491000000
H     2.285000000     3.981000000    -2.244000000
C     0.853000000     4.362000000     0.782000000
C    -0.468000000     4.293000000     0.352000000
H    -1.187000000     4.185000000     1.161000000
C    -0.784000000     4.451000000    -1.005000000
O    -2.076000000     4.243000000    -1.429000000
C    -2.480000000     2.932000000    -1.791000000
C    -3.800000000     2.462000000    -1.133000000
C    -4.456000000     1.451000000    -1.750000000
H    -4.129000000     1.145000000    -2.740000000
C    -4.226000000     2.859000000     0.103000000
H    -3.656000000     3.662000000     0.562000000
O    -2.517000000     2.788000000    -3.219000000
H    -1.732000000     2.211000000    -1.429000000
C     0.247000000     4.340000000    -1.932000000
C    -0.053000000     4.383000000    -3.462000000
H     0.763000000     4.934000000    -3.933000000
H    -1.029000000     4.872000000    -3.499000000
C    -0.157000000     2.980000000    -3.947000000
C     0.941000000     2.361000000    -4.533000000
H     1.881000000     2.906000000    -4.506000000
C    -1.355000000     2.231000000    -3.803000000
C    -1.403000000     0.873000000    -4.258000000
H    -2.319000000     0.295000000    -4.159000000
C    -0.263000000     0.294000000    -4.689000000
O    -0.303000000    -1.072000000    -4.941000000
C     0.038000000    -1.906000000    -3.901000000
C    -0.985000000    -3.002000000    -3.647000000
C    -2.284000000    -2.884000000    -4.167000000
H    -2.554000000    -2.097000000    -4.866000000
C    -0.677000000    -4.060000000    -2.776000000
H     0.311000000    -4.153000000    -2.334000000
O     1.396000000    -2.445000000    -4.173000000
H     0.045000000    -1.195000000    -3.062000000
C     0.872000000     1.013000000    -4.846000000
C     2.187000000     0.248000000    -5.172000000
H     2.976000000     0.878000000    -5.588000000
H     1.902000000    -0.393000000    -6.009000000
C     2.750000000    -0.507000000    -4.020000000
C     2.428000000    -1.789000000    -3.606000000
C     2.901000000    -2.406000000    -2.425000000
H     2.582000000    -3.356000000    -2.006000000
C     3.935000000    -1.820000000    -1.701000000
O     4.287000000    -2.395000000    -0.461000000
C     3.687000000    -1.879000000     0.769000000
H     2.763000000    -1.315000000     0.574000000
C     3.250000000    -2.982000000     1.773000000
C     3.320000000    -2.755000000     3.142000000
H     3.693000000    -1.825000000     3.564000000
C     2.891000000    -4.236000000     1.336000000
H     2.773000000    -4.408000000     0.269000000
C     2.489000000    -5.231000000     2.161000000
O     1.968000000    -6.435000000     1.752000000
C     2.454000000    -5.002000000     3.524000000
H     2.051000000    -5.706000000     4.248000000
C     2.904000000    -3.760000000     4.006000000
O     3.030000000    -3.591000000     5.435000000
C     3.083000000    -2.302000000     6.007000000
C     1.863000000    -1.571000000     6.208000000
H     0.886000000    -1.839000000     5.814000000
C     4.352000000    -1.835000000     6.352000000
H     5.197000000    -2.458000000     6.071000000
C     4.423000000    -0.558000000     6.823000000
H     5.366000000    -0.049000000     7.006000000
C     3.293000000     0.189000000     7.062000000
H     3.368000000     1.202000000     7.451000000
C     2.021000000    -0.367000000     6.872000000
O     0.837000000     0.354000000     6.966000000
C     0.384000000     1.253000000     6.012000000
C    -0.901000000     1.714000000     6.110000000
H    -1.593000000     1.353000000     6.866000000
C    -1.404000000     2.667000000     5.269000000
O    -2.697000000     3.070000000     5.526000000
C    -3.539000000     3.651000000     4.559000000
C    -4.207000000     2.901000000     3.580000000
H    -3.935000000     1.865000000     3.397000000
C    -4.007000000     4.939000000     4.746000000
H    -3.535000000     5.518000000     5.535000000
C    -4.943000000     5.556000000     3.968000000
H    -5.240000000     6.598000000     4.058000000
C    -5.530000000     4.877000000     2.920000000
H    -6.183000000     5.358000000     2.196000000
C    -5.164000000     3.520000000     2.745000000
O    -5.837000000     2.811000000     1.849000000
C    -5.363000000     2.410000000     0.622000000
C    -6.086000000     1.481000000    -0.065000000
H    -6.984000000     1.099000000     0.414000000
C    -5.620000000     0.971000000    -1.249000000
O    -6.408000000    -0.014000000    -1.843000000
C    -6.086000000    -0.649000000    -3.052000000
C    -5.306000000    -1.831000000    -3.106000000
H    -5.017000000    -2.286000000    -2.162000000
C    -6.718000000    -0.207000000    -4.213000000
H    -7.282000000     0.722000000    -4.242000000
C    -6.567000000    -0.928000000    -5.413000000
H    -7.013000000    -0.601000000    -6.349000000
C    -5.829000000    -2.121000000    -5.453000000
H    -5.713000000    -2.746000000    -6.334000000
C    -5.225000000    -2.589000000    -4.267000000
O    -4.506000000    -3.721000000    -4.189000000
C    -3.215000000    -3.696000000    -3.681000000
C    -2.969000000    -4.824000000    -2.918000000
H    -3.798000000    -5.494000000    -2.703000000
C    -1.661000000    -4.985000000    -2.431000000
O    -1.337000000    -6.095000000    -1.671000000
C    -0.029000000    -6.456000000    -1.288000000
C     0.887000000    -6.953000000    -2.223000000
H     0.668000000    -7.057000000    -3.282000000
C     2.233000000    -7.229000000    -1.856000000
H     2.864000000    -7.665000000    -2.627000000
C     2.579000000    -7.115000000    -0.468000000
H     3.556000000    -7.439000000    -0.117000000
C     1.649000000    -6.590000000     0.454000000
C     0.346000000    -6.313000000     0.043000000
H    -0.243000000    -5.757000000     0.769000000
C    -0.733000000    -2.446000000     1.525000000
H    -0.578000000    -3.127000000     2.358000000
C     0.127000000    -1.365000000     1.154000000
H     1.071000000    -1.100000000     1.622000000
C    -0.220000000    -0.516000000     0.063000000
H     0.500000000     0.241000000    -0.266000000
C    -1.324000000    -0.824000000    -0.711000000
H    -1.477000000    -0.171000000    -1.566000000
C    -2.144000000    -1.911000000    -0.428000000
H    -3.134000000    -1.968000000    -0.874000000
C    -1.914000000    -2.699000000     0.708000000
C    -2.862000000    -3.752000000     1.151000000
O    -4.060000000    -3.584000000     1.038000000
O    -2.522000000    -4.760000000     1.762000000
O    -1.441000000    -4.734000000     6.447000000
H    -0.853000000    -4.852000000     7.194000000
H    -1.961000000    -3.962000000     6.671000000
O    -2.505000000    -1.458000000     6.358000000
H    -3.251000000    -0.864000000     6.443000000
H    -1.997000000    -1.101000000     5.630000000
O    -6.092000000    -5.199000000     6.059000000
H    -5.808000000    -5.576000000     5.226000000
H    -5.593000000    -4.386000000     6.136000000
O    -4.744000000    -2.609000000     5.315000000
H    -4.899000000    -2.146000000     4.492000000
H    -3.847000000    -2.936000000     5.241000000
O    -6.612000000    -8.256000000     2.936000000
H    -5.787000000    -8.730000000     2.835000000
H    -6.728000000    -7.795000000     2.105000000
O    -2.653000000    -7.340000000     1.073000000
H    -2.013000000    -7.882000000     1.534000000
H    -2.417000000    -6.441000000     1.302000000
O    -4.384000000    -1.243000000     2.303000000
H    -4.966000000    -0.730000000     1.742000000
H    -4.419000000    -2.127000000     1.938000000
O    -3.331000000    -7.162000000     5.959000000
H    -3.642000000    -7.021000000     5.065000000
H    -2.984000000    -6.312000000     6.229000000
O    -7.316000000    -2.857000000     2.779000000
H    -7.411000000    -2.047000000     2.279000000
H    -6.579000000    -3.308000000     2.366000000
O    -8.575000000    -1.533000000    -0.372000000
H    -8.317000000    -2.448000000    -0.485000000
H    -9.021000000    -1.308000000    -1.189000000
O    -3.389000000    -8.152000000    -1.414000000
H    -3.030000000    -7.906000000    -0.562000000
H    -2.702000000    -7.922000000    -2.039000000
O    -4.429000000    -9.737000000     2.509000000
H    -3.987000000    -8.975000000     2.135000000
H    -3.837000000   -10.468000000     2.330000000
O    -6.401000000    -5.029000000     1.042000000
H    -5.567000000    -4.560000000     1.059000000
H    -6.228000000    -5.805000000     0.509000000
O    -5.656000000    -7.715000000    -0.103000000
H    -4.731000000    -7.488000000    -0.201000000
H    -5.665000000    -8.671000000    -0.053000000
O    -8.321000000    -4.159000000    -0.836000000
H    -8.814000000    -4.970000000    -0.708000000
H    -7.502000000    -4.299000000    -0.359000000
O    -4.704000000    -5.655000000     3.476000000
H    -4.117000000    -5.304000000     2.807000000
H    -5.416000000    -6.059000000     2.982000000
O    -0.922000000    -8.589000000     2.566000000
H    -0.531000000    -9.232000000     3.157000000
H    -0.639000000    -7.743000000     2.913000000
O    -1.024000000    -5.910000000     3.780000000
H    -1.550000000    -5.445000000     3.130000000
H    -1.165000000    -5.425000000     4.593000000
O    -2.133000000    -0.499000000     3.836000000
H    -1.726000000    -0.486000000     2.970000000
H    -2.999000000    -0.879000000     3.689000000
