215
-1455.66411
C    -1.706000000     3.244000000     4.063000000
H    -2.000000000     4.109000000     3.473000000
C    -0.422000000     2.778000000     3.891000000
C     0.022000000     1.775000000     4.749000000
H     1.004000000     1.347000000     4.565000000
C     0.539000000     3.333000000     2.840000000
O     0.048000000     4.542000000     2.295000000
H     0.563000000     2.554000000     2.064000000
O     1.914000000     3.376000000     3.313000000
C     2.830000000     2.933000000     2.342000000
C     3.294000000     1.687000000     2.627000000
H     3.077000000     1.280000000     3.611000000
C     4.163000000     1.020000000     1.757000000
O     4.416000000    -0.298000000     1.981000000
C     4.500000000     1.677000000     0.528000000
C     5.417000000     1.069000000    -0.567000000
H     5.979000000     1.851000000    -1.083000000
C     4.569000000     0.269000000    -1.535000000
C     4.060000000     0.840000000    -2.713000000
H     4.283000000     1.884000000    -2.918000000
H     6.109000000     0.375000000    -0.086000000
C     3.840000000     2.830000000     0.188000000
H     4.048000000     3.273000000    -0.782000000
C     3.081000000     3.571000000     1.107000000
C     2.495000000     4.882000000     0.700000000
H     3.167000000     5.316000000    -0.044000000
H     2.482000000     5.565000000     1.552000000
C     1.124000000     4.785000000     0.112000000
C     1.035000000     4.722000000    -1.262000000
H     1.897000000     4.696000000    -1.923000000
C     0.013000000     4.589000000     0.907000000
C    -1.215000000     4.381000000     0.252000000
H    -2.096000000     4.333000000     0.887000000
C    -1.302000000     4.282000000    -1.090000000
O    -2.475000000     3.890000000    -1.652000000
C    -2.556000000     2.550000000    -1.998000000
C    -3.733000000     1.817000000    -1.436000000
C    -4.078000000     0.543000000    -1.926000000
H    -3.572000000     0.099000000    -2.779000000
C    -4.470000000     2.353000000    -0.366000000
H    -4.189000000     3.332000000     0.012000000
O    -2.352000000     2.233000000    -3.376000000
H    -1.681000000     2.081000000    -1.525000000
C    -0.201000000     4.491000000    -1.883000000
C    -0.224000000     4.402000000    -3.438000000
H     0.537000000     5.111000000    -3.770000000
H    -1.150000000     4.765000000    -3.891000000
C    -0.030000000     2.970000000    -3.835000000
C     1.216000000     2.589000000    -4.246000000
H     2.098000000     3.220000000    -4.177000000
C    -1.055000000     2.012000000    -3.834000000
C    -0.843000000     0.720000000    -4.389000000
H    -1.733000000     0.131000000    -4.593000000
C     0.407000000     0.368000000    -4.901000000
O     0.573000000    -1.015000000    -5.261000000
C     0.960000000    -1.918000000    -4.133000000
C     0.171000000    -3.274000000    -4.028000000
C    -1.207000000    -3.271000000    -4.345000000
H    -1.601000000    -2.322000000    -4.699000000
C     0.785000000    -4.405000000    -3.554000000
H     1.821000000    -4.345000000    -3.231000000
O     2.378000000    -2.147000000    -4.166000000
H     0.832000000    -1.340000000    -3.206000000
C     1.481000000     1.234000000    -4.705000000
C     2.938000000     0.809000000    -4.900000000
H     3.638000000     1.645000000    -4.964000000
H     3.003000000     0.144000000    -5.764000000
C     3.304000000     0.044000000    -3.621000000
C     3.143000000    -1.313000000    -3.361000000
C     3.527000000    -1.876000000    -2.139000000
H     3.406000000    -2.944000000    -1.976000000
C     4.180000000    -1.084000000    -1.221000000
O     4.537000000    -1.683000000    -0.045000000
C     3.780000000    -1.230000000     1.101000000
H     2.922000000    -0.654000000     0.724000000
C     3.253000000    -2.410000000     1.973000000
C     3.251000000    -2.323000000     3.375000000
H     3.757000000    -1.505000000     3.882000000
C     2.581000000    -3.551000000     1.347000000
H     2.543000000    -3.527000000     0.260000000
C     2.021000000    -4.542000000     2.177000000
O     1.417000000    -5.621000000     1.571000000
C     2.087000000    -4.462000000     3.533000000
H     1.548000000    -5.233000000     4.078000000
C     2.724000000    -3.356000000     4.141000000
O     2.851000000    -3.231000000     5.456000000
C     2.453000000    -2.119000000     6.150000000
C     1.260000000    -1.511000000     5.874000000
H     0.577000000    -1.996000000     5.182000000
C     3.274000000    -1.535000000     7.107000000
H     4.271000000    -1.907000000     7.327000000
C     2.946000000    -0.273000000     7.729000000
H     3.643000000     0.381000000     8.247000000
C     1.655000000     0.190000000     7.516000000
H     1.292000000     1.017000000     8.121000000
C     0.827000000    -0.378000000     6.563000000
O    -0.444000000     0.042000000     6.417000000
C    -0.825000000     1.192000000     5.708000000
C    -2.127000000     1.716000000     5.827000000
H    -2.880000000     1.284000000     6.481000000
C    -2.588000000     2.751000000     4.993000000
O    -3.800000000     3.329000000     5.276000000
C    -4.626000000     3.667000000     4.231000000
C    -5.000000000     2.735000000     3.220000000
H    -4.689000000     1.703000000     3.359000000
C    -5.046000000     4.960000000     4.114000000
H    -4.721000000     5.704000000     4.838000000
C    -5.830000000     5.389000000     3.019000000
H    -6.208000000     6.405000000     2.932000000
C    -6.096000000     4.425000000     1.994000000
H    -6.731000000     4.648000000     1.140000000
C    -5.740000000     3.098000000     2.146000000
O    -6.257000000     2.165000000     1.295000000
C    -5.552000000     1.626000000     0.212000000
C    -5.931000000     0.393000000    -0.313000000
H    -6.710000000    -0.188000000     0.174000000
C    -5.175000000    -0.120000000    -1.383000000
O    -5.502000000    -1.351000000    -1.832000000
C    -5.194000000    -1.808000000    -3.101000000
C    -4.409000000    -2.958000000    -3.256000000
H    -4.034000000    -3.457000000    -2.365000000
C    -5.723000000    -1.216000000    -4.205000000
H    -6.458000000    -0.423000000    -4.093000000
C    -5.397000000    -1.715000000    -5.504000000
H    -5.774000000    -1.268000000    -6.421000000
C    -4.478000000    -2.723000000    -5.661000000
H    -4.333000000    -3.210000000    -6.622000000
C    -4.082000000    -3.402000000    -4.487000000
O    -3.295000000    -4.499000000    -4.594000000
C    -1.984000000    -4.441000000    -4.198000000
C    -1.337000000    -5.623000000    -3.821000000
H    -1.801000000    -6.603000000    -3.900000000
C    -0.047000000    -5.537000000    -3.346000000
O     0.554000000    -6.718000000    -2.970000000
C     1.371000000    -6.840000000    -1.844000000
C     2.585000000    -7.547000000    -1.879000000
H     2.854000000    -8.060000000    -2.800000000
C     3.474000000    -7.503000000    -0.762000000
H     4.398000000    -8.075000000    -0.770000000
C     3.029000000    -6.855000000     0.419000000
H     3.628000000    -6.714000000     1.315000000
C     1.842000000    -6.212000000     0.398000000
C     1.007000000    -6.184000000    -0.688000000
H     0.066000000    -5.641000000    -0.667000000
C    -0.919000000    -2.264000000    -0.322000000
H    -0.721000000    -3.267000000    -0.690000000
C     0.082000000    -1.243000000    -0.519000000
H     1.043000000    -1.417000000    -0.996000000
C    -0.165000000     0.055000000    -0.142000000
H     0.562000000     0.797000000    -0.455000000
C    -1.441000000     0.444000000     0.340000000
H    -1.631000000     1.498000000     0.530000000
C    -2.418000000    -0.578000000     0.526000000
H    -3.279000000    -0.433000000     1.174000000
C    -2.141000000    -1.922000000     0.239000000
C    -3.149000000    -3.024000000     0.570000000
O    -4.304000000    -2.813000000     0.915000000
O    -2.758000000    -4.171000000     0.468000000
O    -0.997000000    -8.789000000     0.025000000
H    -1.540000000    -8.017000000    -0.138000000
H    -1.004000000    -9.266000000    -0.805000000
O    -2.529000000    -2.579000000     3.651000000
H    -1.925000000    -1.900000000     3.348000000
H    -2.119000000    -3.401000000     3.382000000
O    -3.666000000    -2.004000000     6.002000000
H    -2.972000000    -1.958000000     6.660000000
H    -3.203000000    -2.111000000     5.172000000
O    -5.180000000    -1.162000000     3.112000000
H    -4.547000000    -1.447000000     3.772000000
H    -4.849000000    -1.525000000     2.290000000
O    -2.632000000    -6.676000000    -0.599000000
H    -3.424000000    -6.837000000    -1.111000000
H    -2.751000000    -5.795000000    -0.243000000
O    -4.935000000    -6.949000000    -2.041000000
H    -5.727000000    -7.351000000    -1.685000000
H    -4.685000000    -7.516000000    -2.770000000
O    -8.134000000    -3.598000000     1.030000000
H    -8.962000000    -3.684000000     0.557000000
H    -7.462000000    -3.761000000     0.369000000
O    -5.754000000    -6.154000000    -4.562000000
H    -5.054000000    -5.619000000    -4.187000000
H    -5.342000000    -7.002000000    -4.730000000
O    -3.350000000    -7.474000000     2.682000000
H    -3.842000000    -6.667000000     2.535000000
H    -2.767000000    -7.541000000     1.926000000
O    -3.397000000    -5.540000000     4.971000000
H    -2.670000000    -5.687000000     4.366000000
H    -4.122000000    -5.263000000     4.411000000
O    -5.884000000    -4.420000000    -0.512000000
H    -5.287000000    -3.700000000    -0.310000000
H    -5.447000000    -5.198000000    -0.165000000
O    -7.359000000    -4.701000000    -2.659000000
H    -6.914000000    -5.353000000    -3.202000000
H    -6.777000000    -4.577000000    -1.910000000
O    -6.995000000    -4.195000000     3.795000000
H    -7.702000000    -4.588000000     3.283000000
H    -6.194000000    -4.474000000     3.351000000
O    -6.603000000    -6.423000000     1.255000000
H    -6.949000000    -6.540000000     0.370000000
H    -6.619000000    -7.301000000     1.636000000
O    -8.702000000    -1.503000000    -1.992000000
H    -7.782000000    -1.676000000    -1.792000000
H    -8.811000000    -0.566000000    -1.826000000
O    -1.401000000    -5.010000000     2.821000000
H    -0.563000000    -5.458000000     2.708000000
H    -1.822000000    -5.068000000     1.963000000
O    -4.699000000    -4.932000000     2.524000000
H    -4.434000000    -4.155000000     2.030000000
H    -5.484000000    -5.245000000     2.074000000
O    -7.893000000    -0.884000000     2.351000000
H    -6.983000000    -0.901000000     2.645000000
H    -7.988000000    -1.674000000     1.818000000
O    -0.301000000    -1.406000000     2.792000000
H    -0.689000000    -0.987000000     2.024000000
H     0.515000000    -1.788000000     2.470000000
