215
-1461.81969
C    -3.196000000    -3.245000000    -2.391000000
H    -2.983000000    -2.798000000    -3.359000000
C    -3.730000000    -2.387000000    -1.396000000
C    -3.934000000    -2.869000000    -0.096000000
H    -4.195000000    -2.218000000     0.735000000
C    -3.771000000    -0.843000000    -1.625000000
O    -3.875000000    -0.609000000    -3.034000000
H    -2.782000000    -0.528000000    -1.260000000
O    -4.763000000    -0.155000000    -0.858000000
C    -4.382000000     0.923000000    -0.119000000
C    -4.130000000     0.820000000     1.253000000
H    -4.214000000    -0.152000000     1.732000000
C    -3.798000000     1.971000000     1.974000000
O    -3.441000000     1.661000000     3.228000000
C    -3.587000000     3.164000000     1.349000000
C    -3.023000000     4.334000000     2.179000000
H    -3.222000000     5.321000000     1.756000000
C    -1.484000000     4.103000000     2.219000000
C    -0.648000000     4.791000000     1.265000000
H    -1.224000000     5.359000000     0.539000000
H    -3.549000000     4.467000000     3.127000000
C    -3.826000000     3.278000000    -0.038000000
H    -3.520000000     4.174000000    -0.571000000
C    -4.272000000     2.187000000    -0.773000000
C    -4.583000000     2.319000000    -2.225000000
H    -4.973000000     3.307000000    -2.477000000
H    -5.506000000     1.753000000    -2.361000000
C    -3.389000000     1.853000000    -3.049000000
C    -2.355000000     2.840000000    -3.249000000
H    -2.560000000     3.856000000    -2.922000000
C    -3.189000000     0.523000000    -3.468000000
C    -1.998000000     0.231000000    -4.085000000
H    -1.753000000    -0.821000000    -4.211000000
C    -1.066000000     1.199000000    -4.456000000
O     0.134000000     0.739000000    -4.934000000
C     1.245000000     0.605000000    -4.054000000
C     2.035000000    -0.708000000    -4.337000000
C     3.430000000    -0.786000000    -4.348000000
H     3.966000000     0.159000000    -4.301000000
C     1.303000000    -1.914000000    -4.486000000
H     0.219000000    -1.975000000    -4.443000000
O     2.115000000     1.721000000    -4.174000000
H     0.880000000     0.612000000    -3.017000000
C    -1.227000000     2.494000000    -3.976000000
C    -0.190000000     3.571000000    -4.258000000
H    -0.687000000     4.530000000    -4.419000000
H     0.120000000     3.329000000    -5.277000000
C     0.866000000     3.690000000    -3.173000000
C     0.774000000     4.511000000    -2.054000000
H     0.024000000     5.290000000    -1.948000000
C     1.997000000     2.818000000    -3.284000000
C     2.993000000     2.810000000    -2.262000000
H     3.867000000     2.168000000    -2.336000000
C     2.824000000     3.579000000    -1.133000000
O     3.708000000     3.432000000    -0.117000000
C     3.159000000     2.747000000     1.036000000
C     4.212000000     1.807000000     1.591000000
C     4.917000000     1.026000000     0.707000000
H     4.797000000     1.302000000    -0.337000000
C     4.324000000     1.583000000     2.951000000
H     3.793000000     2.243000000     3.631000000
O     2.707000000     3.561000000     2.070000000
H     2.285000000     2.205000000     0.646000000
C     1.736000000     4.540000000    -1.067000000
C     1.505000000     5.447000000     0.124000000
H     0.990000000     6.362000000    -0.176000000
H     2.428000000     5.923000000     0.463000000
C     0.744000000     4.738000000     1.258000000
C     1.351000000     3.906000000     2.211000000
C     0.621000000     3.265000000     3.187000000
H     1.144000000     2.687000000     3.945000000
C    -0.783000000     3.362000000     3.191000000
O    -1.486000000     2.679000000     4.132000000
C    -2.080000000     1.436000000     3.624000000
H    -1.596000000     1.040000000     2.719000000
C    -1.823000000     0.248000000     4.502000000
C    -2.817000000    -0.717000000     4.759000000
H    -3.835000000    -0.531000000     4.427000000
C    -0.547000000    -0.101000000     4.956000000
H     0.209000000     0.649000000     4.739000000
C    -0.261000000    -1.319000000     5.634000000
O     1.005000000    -1.642000000     6.054000000
C    -1.296000000    -2.195000000     5.939000000
H    -1.121000000    -3.110000000     6.499000000
C    -2.583000000    -1.939000000     5.475000000
O    -3.528000000    -2.889000000     5.667000000
C    -4.353000000    -3.338000000     4.637000000
C    -3.819000000    -3.773000000     3.406000000
H    -2.736000000    -3.837000000     3.338000000
C    -5.786000000    -3.243000000     4.829000000
H    -6.180000000    -2.854000000     5.764000000
C    -6.580000000    -3.791000000     3.851000000
H    -7.638000000    -3.889000000     4.080000000
C    -6.032000000    -4.295000000     2.627000000
H    -6.655000000    -4.653000000     1.811000000
C    -4.659000000    -4.256000000     2.381000000
O    -4.076000000    -4.849000000     1.280000000
C    -3.819000000    -4.247000000     0.103000000
C    -3.553000000    -5.099000000    -0.947000000
H    -3.584000000    -6.180000000    -0.842000000
C    -3.174000000    -4.597000000    -2.201000000
O    -2.909000000    -5.535000000    -3.203000000
C    -2.009000000    -5.449000000    -4.198000000
C    -0.691000000    -5.169000000    -3.807000000
H    -0.392000000    -5.112000000    -2.763000000
C    -2.468000000    -5.418000000    -5.517000000
H    -3.488000000    -5.613000000    -5.838000000
C    -1.508000000    -5.062000000    -6.464000000
H    -1.817000000    -4.972000000    -7.503000000
C    -0.182000000    -4.713000000    -6.123000000
H     0.553000000    -4.576000000    -6.913000000
C     0.209000000    -4.705000000    -4.760000000
O     1.487000000    -4.387000000    -4.424000000
C     2.028000000    -3.122000000    -4.508000000
C     3.406000000    -3.202000000    -4.433000000
H     3.906000000    -4.164000000    -4.509000000
C     4.082000000    -2.036000000    -4.401000000
O     5.507000000    -2.001000000    -4.428000000
C     6.130000000    -1.180000000    -3.506000000
C     5.808000000    -1.335000000    -2.111000000
H     5.049000000    -2.063000000    -1.838000000
C     6.911000000    -0.144000000    -3.922000000
H     7.053000000     0.082000000    -4.976000000
C     7.482000000     0.717000000    -2.990000000
H     8.023000000     1.595000000    -3.333000000
C     7.303000000     0.425000000    -1.615000000
H     7.814000000     1.081000000    -0.915000000
C     6.396000000    -0.566000000    -1.163000000
O     6.227000000    -0.850000000     0.186000000
C     5.627000000    -0.059000000     1.083000000
C     5.768000000    -0.326000000     2.483000000
H     6.305000000    -1.216000000     2.799000000
C     5.079000000     0.457000000     3.360000000
O     5.207000000     0.369000000     4.701000000
C     4.005000000     0.338000000     5.501000000
C     3.911000000     1.233000000     6.600000000
H     4.607000000     2.061000000     6.713000000
C     2.799000000     1.225000000     7.455000000
H     2.782000000     1.982000000     8.235000000
C     1.874000000     0.231000000     7.296000000
H     1.026000000     0.089000000     7.960000000
C     1.973000000    -0.692000000     6.220000000
C     3.020000000    -0.685000000     5.319000000
H     3.155000000    -1.413000000     4.523000000
C     1.893000000    -1.203000000     1.344000000
H     2.447000000    -1.200000000     2.279000000
C     0.907000000    -0.193000000     1.140000000
H     0.877000000     0.541000000     1.941000000
C     0.273000000    -0.118000000    -0.088000000
H    -0.410000000     0.714000000    -0.240000000
C     0.468000000    -1.088000000    -1.035000000
H    -0.055000000    -1.137000000    -1.987000000
C     1.360000000    -2.136000000    -0.828000000
H     1.415000000    -2.976000000    -1.515000000
C     2.044000000    -2.146000000     0.367000000
C     2.971000000    -3.303000000     0.614000000
O     3.185000000    -4.041000000    -0.274000000
O     3.471000000    -3.414000000     1.666000000
O     3.543000000    -4.196000000     5.954000000
H     4.007000000    -3.881000000     5.179000000
H     3.486000000    -5.143000000     5.832000000
O     8.652000000    -5.022000000    -2.666000000
H     7.782000000    -5.042000000    -2.269000000
H     8.504000000    -4.681000000    -3.549000000
O     6.299000000    -6.139000000     3.644000000
H     6.749000000    -6.850000000     3.188000000
H     6.319000000    -6.394000000     4.566000000
O     8.478000000    -4.353000000     0.825000000
H     7.522000000    -4.405000000     0.821000000
H     8.689000000    -3.763000000     0.102000000
O     2.150000000    -5.911000000    -1.853000000
H     2.275000000    -5.543000000    -2.728000000
H     2.385000000    -5.199000000    -1.258000000
O     6.805000000    -2.070000000     5.624000000
H     6.122000000    -2.172000000     4.962000000
H     7.005000000    -1.134000000     5.620000000
O     7.871000000    -3.595000000     3.340000000
H     7.602000000    -4.513000000     3.329000000
H     8.369000000    -3.481000000     2.530000000
O     5.639000000    -8.460000000    -0.542000000
H     5.536000000    -7.514000000    -0.641000000
H     4.957000000    -8.835000000    -1.100000000
O     4.812000000    -3.356000000     3.868000000
H     5.524000000    -3.987000000     3.759000000
H     4.372000000    -3.341000000     3.018000000
O     2.743000000    -8.205000000    -0.657000000
H     2.549000000    -8.128000000     0.277000000
H     2.700000000    -7.306000000    -0.985000000
O     0.260000000    -4.535000000     4.509000000
H     0.104000000    -4.176000000     3.636000000
H     1.084000000    -4.137000000     4.788000000
O    -0.545000000    -3.187000000     2.173000000
H    -0.879000000    -3.998000000     1.790000000
H    -0.262000000    -2.666000000     1.421000000
O     3.461000000    -6.545000000     4.466000000
H     3.369000000    -7.489000000     4.599000000
H     2.947000000    -6.363000000     3.680000000
O    -0.817000000    -7.374000000    -1.122000000
H     0.112000000    -7.256000000    -0.921000000
H    -0.825000000    -7.792000000    -1.983000000
O     2.071000000    -5.768000000     2.285000000
H     2.567000000    -4.956000000     2.183000000
H     1.202000000    -5.563000000     1.940000000
O     2.075000000    -8.832000000     1.923000000
H     1.996000000    -9.421000000     2.673000000
H     2.034000000    -7.954000000     2.301000000
O    -0.825000000    -5.937000000     1.343000000
H    -0.869000000    -6.400000000     0.507000000
H    -1.403000000    -6.433000000     1.923000000
O     5.558000000    -5.018000000     1.169000000
H     4.816000000    -4.414000000     1.153000000
H     5.608000000    -5.312000000     2.078000000
O     5.634000000    -5.722000000    -1.643000000
H     5.283000000    -5.252000000    -0.887000000
H     4.863000000    -5.948000000    -2.163000000
