215
-1450.19371
C    -1.043000000     3.455000000     4.073000000
H    -1.374000000     4.205000000     3.360000000
C     0.231000000     2.884000000     4.078000000
C     0.491000000     1.783000000     4.931000000
H     1.455000000     1.288000000     5.015000000
C     1.087000000     3.241000000     2.919000000
O     0.837000000     4.570000000     2.342000000
H     0.896000000     2.438000000     2.191000000
O     2.456000000     3.069000000     3.186000000
C     3.330000000     2.525000000     2.324000000
C     3.701000000     1.213000000     2.512000000
H     3.417000000     0.616000000     3.374000000
C     4.435000000     0.499000000     1.591000000
O     4.376000000    -0.883000000     1.720000000
C     4.718000000     1.112000000     0.403000000
C     5.410000000     0.322000000    -0.749000000
H     6.005000000     1.024000000    -1.337000000
C     4.305000000    -0.397000000    -1.587000000
C     4.021000000     0.199000000    -2.827000000
H     4.403000000     1.180000000    -3.095000000
H     6.016000000    -0.515000000    -0.397000000
C     4.471000000     2.448000000     0.170000000
H     4.604000000     2.958000000    -0.781000000
C     3.704000000     3.208000000     1.135000000
C     3.259000000     4.606000000     0.717000000
H     3.946000000     5.019000000    -0.025000000
H     3.285000000     5.268000000     1.586000000
C     1.900000000     4.583000000     0.147000000
C     1.728000000     4.506000000    -1.231000000
H     2.594000000     4.490000000    -1.887000000
C     0.774000000     4.655000000     0.986000000
C    -0.469000000     4.365000000     0.385000000
H    -1.413000000     4.281000000     0.917000000
C    -0.608000000     4.258000000    -0.978000000
O    -1.843000000     4.021000000    -1.517000000
C    -2.234000000     2.689000000    -1.990000000
C    -3.633000000     2.321000000    -1.561000000
C    -4.268000000     1.250000000    -2.182000000
H    -3.844000000     0.781000000    -3.066000000
C    -4.322000000     3.007000000    -0.534000000
H    -3.897000000     3.895000000    -0.074000000
O    -2.085000000     2.544000000    -3.422000000
H    -1.520000000     1.994000000    -1.523000000
C     0.478000000     4.350000000    -1.826000000
C     0.266000000     4.165000000    -3.305000000
H     1.014000000     4.728000000    -3.867000000
H    -0.635000000     4.704000000    -3.608000000
C     0.198000000     2.738000000    -3.934000000
C     1.339000000     2.089000000    -4.343000000
H     2.292000000     2.607000000    -4.271000000
C    -0.977000000     2.042000000    -3.976000000
C    -1.003000000     0.766000000    -4.421000000
H    -1.928000000     0.199000000    -4.353000000
C     0.113000000     0.133000000    -4.982000000
O     0.032000000    -1.132000000    -5.343000000
C     0.380000000    -2.091000000    -4.291000000
C    -0.535000000    -3.302000000    -4.102000000
C    -1.859000000    -3.217000000    -4.569000000
H    -2.242000000    -2.453000000    -5.240000000
C    -0.129000000    -4.348000000    -3.199000000
H     0.890000000    -4.375000000    -2.823000000
O     1.825000000    -2.374000000    -4.216000000
H     0.289000000    -1.545000000    -3.340000000
C     1.330000000     0.788000000    -4.903000000
C     2.729000000     0.122000000    -5.067000000
H     3.429000000     0.929000000    -5.296000000
H     2.822000000    -0.507000000    -5.954000000
C     3.123000000    -0.476000000    -3.715000000
C     2.570000000    -1.701000000    -3.317000000
C     2.884000000    -2.273000000    -2.120000000
H     2.336000000    -3.142000000    -1.764000000
C     3.724000000    -1.665000000    -1.253000000
O     3.800000000    -2.287000000    -0.048000000
C     3.333000000    -1.693000000     1.232000000
H     2.446000000    -1.104000000     0.955000000
C     3.054000000    -2.868000000     2.153000000
C     3.162000000    -2.755000000     3.557000000
H     3.691000000    -1.936000000     4.039000000
C     2.465000000    -4.052000000     1.671000000
H     2.344000000    -4.180000000     0.599000000
C     2.107000000    -5.143000000     2.497000000
O     1.600000000    -6.321000000     1.992000000
C     2.208000000    -4.981000000     3.903000000
H     1.833000000    -5.734000000     4.591000000
C     2.725000000    -3.801000000     4.391000000
O     2.702000000    -3.669000000     5.712000000
C     2.344000000    -2.523000000     6.367000000
C     1.244000000    -1.668000000     6.017000000
H     0.603000000    -1.988000000     5.199000000
C     3.183000000    -2.137000000     7.415000000
H     4.122000000    -2.666000000     7.561000000
C     2.839000000    -1.004000000     8.256000000
H     3.400000000    -0.680000000     9.129000000
C     1.656000000    -0.337000000     7.938000000
H     1.393000000     0.495000000     8.587000000
C     0.938000000    -0.603000000     6.785000000
O    -0.249000000     0.096000000     6.535000000
C    -0.450000000     1.264000000     5.799000000
C    -1.775000000     1.732000000     5.639000000
H    -2.645000000     1.268000000     6.095000000
C    -2.035000000     2.831000000     4.799000000
O    -3.290000000     3.314000000     4.829000000
C    -3.964000000     4.096000000     3.900000000
C    -4.568000000     3.411000000     2.827000000
H    -4.508000000     2.326000000     2.816000000
C    -4.094000000     5.491000000     3.915000000
H    -3.400000000     6.034000000     4.551000000
C    -4.951000000     6.118000000     3.055000000
H    -5.009000000     7.204000000     3.050000000
C    -5.702000000     5.433000000     2.083000000
H    -6.279000000     5.955000000     1.324000000
C    -5.470000000     4.051000000     2.004000000
O    -6.140000000     3.301000000     1.028000000
C    -5.504000000     2.581000000    -0.043000000
C    -6.092000000     1.406000000    -0.509000000
H    -6.955000000     0.932000000    -0.048000000
C    -5.490000000     0.851000000    -1.656000000
O    -5.933000000    -0.334000000    -2.145000000
C    -5.622000000    -0.963000000    -3.394000000
C    -5.063000000    -2.243000000    -3.322000000
H    -4.986000000    -2.840000000    -2.417000000
C    -5.856000000    -0.240000000    -4.567000000
H    -6.400000000     0.684000000    -4.743000000
C    -5.574000000    -0.890000000    -5.745000000
H    -5.837000000    -0.391000000    -6.675000000
C    -5.033000000    -2.171000000    -5.787000000
H    -4.825000000    -2.638000000    -6.746000000
C    -4.745000000    -2.855000000    -4.572000000
O    -4.043000000    -4.051000000    -4.584000000
C    -2.749000000    -4.135000000    -4.116000000
C    -2.317000000    -5.182000000    -3.324000000
H    -3.044000000    -5.918000000    -2.992000000
C    -1.023000000    -5.332000000    -2.881000000
O    -0.745000000    -6.373000000    -2.036000000
C     0.479000000    -6.549000000    -1.402000000
C     1.623000000    -6.922000000    -2.107000000
H     1.645000000    -7.109000000    -3.177000000
C     2.844000000    -6.936000000    -1.361000000
H     3.770000000    -7.178000000    -1.876000000
C     2.853000000    -6.835000000     0.001000000
H     3.810000000    -6.737000000     0.509000000
C     1.679000000    -6.557000000     0.657000000
C     0.576000000    -6.279000000    -0.086000000
H    -0.224000000    -5.827000000     0.494000000
C    -2.964000000    -1.313000000    -0.086000000
H    -3.708000000    -1.998000000    -0.485000000
C    -1.735000000    -1.194000000    -0.674000000
H    -1.463000000    -1.750000000    -1.568000000
C    -0.839000000    -0.321000000    -0.139000000
H     0.068000000    -0.192000000    -0.709000000
C    -1.163000000     0.476000000     0.957000000
H    -0.522000000     1.284000000     1.302000000
C    -2.408000000     0.317000000     1.574000000
H    -2.694000000     0.937000000     2.420000000
C    -3.321000000    -0.593000000     1.020000000
C    -4.723000000    -0.774000000     1.689000000
O    -5.024000000    -0.111000000     2.644000000
O    -5.433000000    -1.730000000     1.436000000
O    -4.658000000    -0.668000000     5.228000000
H    -4.947000000    -0.426000000     4.348000000
H    -3.745000000    -0.935000000     5.115000000
O    -2.330000000    -2.536000000     4.997000000
H    -1.866000000    -2.247000000     4.211000000
H    -3.048000000    -3.076000000     4.667000000
O    -8.054000000    -5.341000000     3.004000000
H    -7.775000000    -4.426000000     3.053000000
H    -7.708000000    -5.740000000     3.803000000
O    -4.920000000    -2.223000000     7.551000000
H    -4.834000000    -1.795000000     6.699000000
H    -4.099000000    -2.025000000     8.002000000
O    -1.877000000    -5.065000000     1.892000000
H    -2.108000000    -5.837000000     2.408000000
H    -2.299000000    -5.208000000     1.045000000
O    -4.460000000    -3.669000000     3.397000000
H    -4.312000000    -3.595000000     2.455000000
H    -5.303000000    -3.239000000     3.541000000
O    -6.064000000    -4.250000000     0.575000000
H    -5.909000000    -3.360000000     0.891000000
H    -6.966000000    -4.442000000     0.833000000
O    -8.152000000     4.099000000     3.906000000
H    -7.532000000     3.457000000     3.560000000
H    -8.551000000     4.489000000     3.128000000
O    -3.625000000    -5.459000000    -0.329000000
H    -4.164000000    -6.249000000    -0.339000000
H    -4.233000000    -4.757000000    -0.096000000
O    -9.173000000     0.738000000     1.721000000
H    -9.637000000     1.252000000     1.060000000
H    -8.880000000    -0.044000000     1.255000000
O    -9.927000000    -0.496000000     4.443000000
H    -9.138000000    -0.780000000     4.905000000
H    -9.624000000    -0.284000000     3.560000000
O    -8.992000000    -4.134000000    -0.282000000
H    -9.753000000    -4.458000000     0.201000000
H    -8.915000000    -4.724000000    -1.031000000
O    -4.891000000    -5.306000000     5.488000000
H    -4.059000000    -5.293000000     5.960000000
H    -4.713000000    -4.834000000     4.675000000
O    -7.410000000    -1.185000000     5.542000000
H    -7.518000000    -0.807000000     6.415000000
H    -6.536000000    -0.908000000     5.268000000
O    -8.112000000    -1.612000000     0.878000000
H    -7.159000000    -1.675000000     0.815000000
H    -8.424000000    -2.494000000     0.678000000
O    -6.965000000    -2.847000000     3.491000000
H    -7.216000000    -2.456000000     4.327000000
H    -6.722000000    -2.102000000     2.941000000
O    -6.328000000     2.743000000     5.763000000
H    -6.415000000     2.125000000     5.038000000
H    -6.764000000     3.538000000     5.455000000
O    -7.012000000     1.223000000     3.582000000
H    -6.296000000     0.989000000     2.991000000
H    -7.805000000     0.968000000     3.110000000
O    -0.790000000    -2.582000000     2.587000000
H    -0.898000000    -3.507000000     2.365000000
H    -1.104000000    -2.111000000     1.815000000
