215
-1406.30368
C    -1.321000000     2.918000000     4.317000000
H    -1.676000000     3.579000000     3.531000000
C    -0.053000000     2.460000000     4.281000000
C     0.300000000     1.381000000     5.118000000
H     1.316000000     1.023000000     4.971000000
C     0.894000000     2.924000000     3.164000000
O     0.483000000     4.272000000     2.674000000
H     0.817000000     2.285000000     2.271000000
O     2.333000000     2.874000000     3.457000000
C     3.036000000     2.285000000     2.409000000
C     3.561000000     1.043000000     2.624000000
H     3.291000000     0.483000000     3.515000000
C     4.325000000     0.301000000     1.680000000
O     4.494000000    -1.044000000     1.911000000
C     4.783000000     1.028000000     0.528000000
C     5.610000000     0.304000000    -0.525000000
H     6.271000000     1.025000000    -1.010000000
C     4.715000000    -0.354000000    -1.521000000
C     4.286000000     0.417000000    -2.610000000
H     4.594000000     1.456000000    -2.700000000
H     6.322000000    -0.399000000    -0.089000000
C     4.402000000     2.369000000     0.394000000
H     4.852000000     2.887000000    -0.448000000
C     3.479000000     3.009000000     1.277000000
C     3.002000000     4.476000000     1.125000000
H     3.706000000     5.109000000     0.581000000
H     3.068000000     4.957000000     2.104000000
C     1.632000000     4.490000000     0.499000000
C     1.590000000     4.583000000    -0.860000000
H     2.475000000     4.595000000    -1.491000000
C     0.496000000     4.491000000     1.294000000
C    -0.754000000     4.402000000     0.643000000
H    -1.676000000     4.354000000     1.217000000
C    -0.832000000     4.499000000    -0.782000000
O    -2.019000000     4.341000000    -1.398000000
C    -2.325000000     3.044000000    -1.971000000
C    -3.662000000     2.380000000    -1.485000000
C    -4.210000000     1.301000000    -2.072000000
H    -3.682000000     0.878000000    -2.923000000
C    -4.293000000     3.045000000    -0.482000000
H    -3.954000000     3.995000000    -0.076000000
O    -2.082000000     2.894000000    -3.331000000
H    -1.688000000     2.275000000    -1.510000000
C     0.356000000     4.568000000    -1.489000000
C     0.373000000     4.664000000    -3.004000000
H     1.243000000     5.243000000    -3.321000000
H    -0.436000000     5.202000000    -3.502000000
C     0.340000000     3.252000000    -3.634000000
C     1.504000000     2.617000000    -4.088000000
H     2.404000000     3.203000000    -3.923000000
C    -0.817000000     2.488000000    -3.768000000
C    -0.792000000     1.201000000    -4.244000000
H    -1.779000000     0.747000000    -4.259000000
C     0.388000000     0.590000000    -4.630000000
O     0.303000000    -0.690000000    -5.160000000
C     0.588000000    -1.666000000    -4.131000000
C    -0.316000000    -2.835000000    -4.245000000
C    -1.633000000    -2.641000000    -4.695000000
H    -1.932000000    -1.706000000    -5.163000000
C     0.096000000    -4.104000000    -3.637000000
H     1.150000000    -4.330000000    -3.495000000
O     1.966000000    -2.107000000    -4.210000000
H     0.480000000    -1.232000000    -3.126000000
C     1.549000000     1.314000000    -4.547000000
C     2.946000000     0.723000000    -4.810000000
H     3.798000000     1.375000000    -5.011000000
H     2.896000000     0.100000000    -5.705000000
C     3.415000000    -0.139000000    -3.583000000
C     2.902000000    -1.490000000    -3.381000000
C     3.343000000    -2.178000000    -2.307000000
H     2.802000000    -3.092000000    -2.073000000
C     4.150000000    -1.595000000    -1.341000000
O     4.369000000    -2.309000000    -0.186000000
C     3.707000000    -1.918000000     1.060000000
H     2.861000000    -1.311000000     0.704000000
C     3.067000000    -3.008000000     1.866000000
C     3.294000000    -3.013000000     3.252000000
H     3.878000000    -2.310000000     3.842000000
C     2.301000000    -4.009000000     1.312000000
H     2.173000000    -3.980000000     0.233000000
C     1.636000000    -4.909000000     2.098000000
O     0.871000000    -5.900000000     1.554000000
C     1.776000000    -4.822000000     3.499000000
H     1.272000000    -5.518000000     4.165000000
C     2.555000000    -3.860000000     4.034000000
O     2.803000000    -3.866000000     5.385000000
C     2.513000000    -2.800000000     6.104000000
C     1.178000000    -2.257000000     6.102000000
H     0.392000000    -2.775000000     5.558000000
C     3.508000000    -2.066000000     6.709000000
H     4.521000000    -2.460000000     6.693000000
C     3.201000000    -0.962000000     7.492000000
H     3.952000000    -0.562000000     8.169000000
C     1.933000000    -0.445000000     7.571000000
H     1.722000000     0.428000000     8.182000000
C     0.957000000    -1.033000000     6.727000000
O    -0.287000000    -0.513000000     6.446000000
C    -0.579000000     0.707000000     5.968000000
C    -1.867000000     1.177000000     5.936000000
H    -2.669000000     0.632000000     6.427000000
C    -2.244000000     2.265000000     5.178000000
O    -3.576000000     2.724000000     5.288000000
C    -4.136000000     3.472000000     4.300000000
C    -4.856000000     2.911000000     3.219000000
H    -5.050000000     1.841000000     3.229000000
C    -4.173000000     4.854000000     4.382000000
H    -3.724000000     5.420000000     5.195000000
C    -4.816000000     5.604000000     3.390000000
H    -4.781000000     6.690000000     3.413000000
C    -5.452000000     4.975000000     2.370000000
H    -5.980000000     5.432000000     1.537000000
C    -5.458000000     3.632000000     2.262000000
O    -6.066000000     2.984000000     1.179000000
C    -5.426000000     2.476000000     0.105000000
C    -5.918000000     1.322000000    -0.528000000
H    -6.914000000     0.965000000    -0.279000000
C    -5.396000000     0.783000000    -1.672000000
O    -6.075000000    -0.379000000    -2.272000000
C    -5.796000000    -0.884000000    -3.505000000
C    -5.080000000    -2.046000000    -3.646000000
H    -4.822000000    -2.531000000    -2.708000000
C    -5.985000000    -0.050000000    -4.604000000
H    -6.521000000     0.876000000    -4.418000000
C    -5.640000000    -0.467000000    -5.882000000
H    -5.962000000     0.165000000    -6.706000000
C    -4.877000000    -1.653000000    -6.000000000
H    -4.545000000    -1.932000000    -6.997000000
C    -4.552000000    -2.453000000    -4.841000000
O    -3.894000000    -3.643000000    -4.996000000
C    -2.542000000    -3.766000000    -4.684000000
C    -2.137000000    -4.901000000    -4.031000000
H    -2.838000000    -5.731000000    -3.992000000
C    -0.847000000    -5.075000000    -3.633000000
O    -0.545000000    -6.330000000    -3.102000000
C     0.330000000    -6.533000000    -2.038000000
C     1.432000000    -7.325000000    -2.337000000
H     1.562000000    -7.779000000    -3.316000000
C     2.371000000    -7.707000000    -1.381000000
H     3.118000000    -8.422000000    -1.719000000
C     2.157000000    -7.252000000    -0.109000000
H     2.786000000    -7.484000000     0.747000000
C     1.054000000    -6.398000000     0.220000000
C     0.172000000    -5.937000000    -0.759000000
H    -0.602000000    -5.207000000    -0.537000000
C    -2.743000000    -1.982000000    -0.326000000
H    -3.069000000    -2.904000000    -0.801000000
C    -1.488000000    -1.426000000    -0.592000000
H    -0.869000000    -2.003000000    -1.274000000
C    -1.037000000    -0.221000000     0.010000000
H     0.029000000     0.049000000    -0.023000000
C    -1.899000000     0.408000000     0.891000000
H    -1.685000000     1.388000000     1.309000000
C    -3.160000000    -0.087000000     1.082000000
H    -3.809000000     0.409000000     1.798000000
C    -3.561000000    -1.308000000     0.561000000
C    -4.959000000    -1.889000000     0.795000000
O    -5.496000000    -1.410000000     1.732000000
O    -5.206000000    -2.993000000     0.446000000
O    -4.447000000    -1.088000000     4.249000000
H    -4.816000000    -1.338000000     3.402000000
H    -3.667000000    -1.635000000     4.341000000
O    -1.966000000    -2.508000000     4.667000000
H    -1.382000000    -1.875000000     5.083000000
H    -1.562000000    -2.686000000     3.818000000
O    -9.775000000    -2.916000000     3.521000000
H    -8.830000000    -2.852000000     3.384000000
H   -10.035000000    -3.698000000     3.034000000
O    -2.225000000    -5.532000000     1.826000000
H    -2.237000000    -6.418000000     2.187000000
H    -2.530000000    -5.637000000     0.925000000
O    -4.577000000    -4.088000000     2.818000000
H    -3.718000000    -4.463000000     2.624000000
H    -4.883000000    -3.743000000     1.979000000
O    -5.912000000    -5.054000000    -0.888000000
H    -5.573000000    -4.276000000    -0.445000000
H    -6.462000000    -5.482000000    -0.232000000
O    -3.137000000    -5.745000000    -0.695000000
H    -3.209000000    -6.507000000    -1.271000000
H    -3.964000000    -5.278000000    -0.811000000
O   -10.981000000    -2.085000000     0.122000000
H   -10.089000000    -2.409000000    -0.005000000
H   -11.358000000    -2.673000000     0.776000000
O    -9.640000000     0.042000000     1.227000000
H    -9.969000000    -0.747000000     0.795000000
H    -9.412000000     0.631000000     0.508000000
O    -7.622000000    -6.261000000     0.844000000
H    -7.635000000    -6.280000000     1.801000000
H    -7.607000000    -7.182000000     0.587000000
O    -5.512000000    -4.254000000     5.696000000
H    -4.777000000    -4.064000000     6.279000000
H    -5.102000000    -4.531000000     4.877000000
O    -9.324000000    -3.385000000    -2.451000000
H    -8.565000000    -3.813000000    -2.847000000
H    -9.103000000    -3.316000000    -1.522000000
O    -7.672000000     0.219000000     5.472000000
H    -6.839000000    -0.188000000     5.713000000
H    -7.679000000     0.202000000     4.515000000
O    -9.770000000    -0.724000000    -2.603000000
H    -8.843000000    -0.488000000    -2.639000000
H    -9.783000000    -1.669000000    -2.753000000
O    -8.353000000    -3.524000000     0.044000000
H    -7.439000000    -3.291000000     0.207000000
H    -8.391000000    -4.468000000     0.197000000
O    -7.015000000    -2.536000000     3.403000000
H    -6.491000000    -2.168000000     2.692000000
H    -6.468000000    -3.230000000     3.770000000
O    -7.047000000     0.453000000     2.854000000
H    -6.283000000     0.029000000     2.464000000
H    -7.796000000     0.030000000     2.432000000
O    -7.032000000    -3.988000000    -3.595000000
H    -7.076000000    -4.258000000    -4.512000000
H    -6.139000000    -4.199000000    -3.325000000
O    -1.110000000    -2.671000000     2.238000000
H    -1.120000000    -3.552000000     1.866000000
H    -1.535000000    -2.126000000     1.575000000
