215
-1471.01948
C    -0.688000000     3.312000000     4.218000000
H    -0.955000000     4.171000000     3.608000000
C     0.479000000     2.636000000     3.980000000
C     0.743000000     1.374000000     4.556000000
H     1.676000000     0.852000000     4.356000000
C     1.342000000     3.019000000     2.740000000
O     1.179000000     4.397000000     2.484000000
H     0.915000000     2.412000000     1.927000000
O     2.693000000     2.648000000     2.999000000
C     3.529000000     2.173000000     2.037000000
C     3.854000000     0.844000000     2.041000000
H     3.603000000     0.261000000     2.922000000
C     4.431000000     0.195000000     0.985000000
O     4.642000000    -1.162000000     1.040000000
C     4.724000000     0.967000000    -0.142000000
C     5.307000000     0.270000000    -1.369000000
H     5.826000000     0.998000000    -1.995000000
C     4.248000000    -0.440000000    -2.189000000
C     3.803000000     0.168000000    -3.377000000
H     4.171000000     1.160000000    -3.629000000
H     6.129000000    -0.361000000    -1.025000000
C     4.506000000     2.332000000    -0.145000000
H     4.652000000     2.939000000    -1.034000000
C     3.828000000     2.941000000     0.891000000
C     3.399000000     4.389000000     0.738000000
H     3.924000000     4.908000000    -0.067000000
H     3.573000000     4.995000000     1.631000000
C     1.987000000     4.577000000     0.289000000
C     1.632000000     4.643000000    -1.112000000
H     2.385000000     4.721000000    -1.892000000
C     0.904000000     4.619000000     1.171000000
C    -0.403000000     4.711000000     0.781000000
H    -1.189000000     4.775000000     1.530000000
C    -0.723000000     4.666000000    -0.582000000
O    -2.036000000     4.402000000    -0.931000000
C    -2.331000000     3.039000000    -1.356000000
C    -3.694000000     2.576000000    -0.835000000
C    -4.502000000     1.712000000    -1.562000000
H    -4.128000000     1.194000000    -2.441000000
C    -4.061000000     2.951000000     0.479000000
H    -3.413000000     3.526000000     1.136000000
O    -2.355000000     3.000000000    -2.751000000
H    -1.528000000     2.385000000    -0.985000000
C     0.292000000     4.579000000    -1.546000000
C     0.094000000     4.582000000    -3.081000000
H     0.885000000     5.172000000    -3.550000000
H    -0.798000000     5.203000000    -3.187000000
C    -0.121000000     3.140000000    -3.731000000
C     0.955000000     2.497000000    -4.353000000
H     1.926000000     2.981000000    -4.288000000
C    -1.335000000     2.485000000    -3.512000000
C    -1.439000000     1.144000000    -3.996000000
H    -2.393000000     0.632000000    -3.903000000
C    -0.371000000     0.576000000    -4.728000000
O    -0.550000000    -0.775000000    -5.007000000
C    -0.147000000    -1.728000000    -4.025000000
C    -1.091000000    -2.899000000    -3.795000000
C    -2.434000000    -2.664000000    -3.515000000
H    -2.761000000    -1.644000000    -3.696000000
C    -0.577000000    -4.176000000    -3.684000000
H     0.482000000    -4.372000000    -3.836000000
O     1.168000000    -2.150000000    -4.467000000
H     0.010000000    -1.194000000    -3.077000000
C     0.888000000     1.201000000    -4.813000000
C     2.146000000     0.474000000    -5.263000000
H     2.860000000     1.176000000    -5.699000000
H     1.801000000    -0.188000000    -6.059000000
C     2.766000000    -0.299000000    -4.100000000
C     2.204000000    -1.572000000    -3.760000000
C     2.792000000    -2.296000000    -2.762000000
H     2.415000000    -3.272000000    -2.466000000
C     3.741000000    -1.702000000    -1.973000000
O     3.967000000    -2.388000000    -0.848000000
C     3.595000000    -1.922000000     0.440000000
H     2.710000000    -1.275000000     0.344000000
C     3.314000000    -3.166000000     1.305000000
C     3.461000000    -3.035000000     2.703000000
H     3.881000000    -2.123000000     3.119000000
C     2.662000000    -4.229000000     0.709000000
H     2.390000000    -4.194000000    -0.343000000
C     2.316000000    -5.271000000     1.524000000
O     1.587000000    -6.372000000     1.092000000
C     2.571000000    -5.266000000     2.947000000
H     2.419000000    -6.086000000     3.643000000
C     2.996000000    -4.040000000     3.539000000
O     3.074000000    -3.958000000     4.932000000
C     3.000000000    -2.737000000     5.570000000
C     1.787000000    -2.077000000     5.565000000
H     0.942000000    -2.454000000     4.995000000
C     4.070000000    -2.226000000     6.234000000
H     5.049000000    -2.699000000     6.232000000
C     3.897000000    -1.029000000     6.911000000
H     4.719000000    -0.658000000     7.516000000
C     2.698000000    -0.344000000     6.853000000
H     2.576000000     0.515000000     7.509000000
C     1.645000000    -0.828000000     6.123000000
O     0.334000000    -0.250000000     6.140000000
C    -0.021000000     0.899000000     5.571000000
C    -1.068000000     1.733000000     6.059000000
H    -1.689000000     1.363000000     6.871000000
C    -1.403000000     2.923000000     5.349000000
O    -2.539000000     3.630000000     5.719000000
C    -3.445000000     4.072000000     4.783000000
C    -4.059000000     3.165000000     3.928000000
H    -3.964000000     2.084000000     3.988000000
C    -3.596000000     5.445000000     4.608000000
H    -2.887000000     6.088000000     5.124000000
C    -4.488000000     5.950000000     3.682000000
H    -4.490000000     7.037000000     3.698000000
C    -5.308000000     5.034000000     2.970000000
H    -6.090000000     5.398000000     2.308000000
C    -4.992000000     3.671000000     3.043000000
O    -5.709000000     2.828000000     2.241000000
C    -5.300000000     2.510000000     0.995000000
C    -6.159000000     1.765000000     0.200000000
H    -7.180000000     1.552000000     0.508000000
C    -5.783000000     1.377000000    -1.091000000
O    -6.691000000     0.709000000    -1.868000000
C    -6.328000000    -0.293000000    -2.669000000
C    -5.543000000    -1.388000000    -2.270000000
H    -5.246000000    -1.396000000    -1.224000000
C    -6.668000000    -0.243000000    -3.942000000
H    -7.254000000     0.622000000    -4.243000000
C    -6.375000000    -1.239000000    -4.890000000
H    -6.691000000    -1.064000000    -5.915000000
C    -5.674000000    -2.362000000    -4.420000000
H    -5.444000000    -3.217000000    -5.050000000
C    -5.142000000    -2.357000000    -3.160000000
O    -4.515000000    -3.528000000    -2.721000000
C    -3.196000000    -3.737000000    -2.996000000
C    -2.632000000    -4.975000000    -2.717000000
H    -3.147000000    -5.783000000    -2.203000000
C    -1.317000000    -5.238000000    -3.224000000
O    -0.780000000    -6.512000000    -3.108000000
C     0.344000000    -6.749000000    -2.291000000
C     1.311000000    -7.632000000    -2.793000000
H     1.203000000    -8.134000000    -3.751000000
C     2.355000000    -8.006000000    -1.983000000
H     3.126000000    -8.655000000    -2.390000000
C     2.399000000    -7.626000000    -0.679000000
H     3.167000000    -7.965000000     0.011000000
C     1.546000000    -6.677000000    -0.236000000
C     0.516000000    -6.204000000    -1.015000000
H    -0.283000000    -5.502000000    -0.789000000
C    -2.099000000    -1.778000000     0.265000000
H    -2.346000000    -2.807000000     0.017000000
C    -0.964000000    -1.164000000    -0.253000000
H    -0.378000000    -1.732000000    -0.972000000
C    -0.557000000     0.131000000     0.196000000
H     0.324000000     0.670000000    -0.087000000
C    -1.307000000     0.760000000     1.135000000
H    -1.045000000     1.740000000     1.526000000
C    -2.418000000     0.159000000     1.708000000
H    -3.014000000     0.646000000     2.476000000
C    -2.901000000    -1.046000000     1.241000000
C    -4.125000000    -1.704000000     1.789000000
O    -4.624000000    -1.317000000     2.817000000
O    -4.675000000    -2.675000000     1.203000000
O    -3.573000000    -0.879000000     5.177000000
H    -4.024000000    -0.994000000     4.341000000
H    -3.000000000    -1.643000000     5.247000000
O    -4.787000000    -4.344000000     6.765000000
H    -4.859000000    -4.089000000     5.846000000
H    -5.655000000    -4.682000000     6.989000000
O    -1.614000000    -3.229000000     5.611000000
H    -1.155000000    -2.702000000     4.956000000
H    -1.442000000    -4.134000000     5.353000000
O    -5.379000000    -0.122000000     7.275000000
H    -5.210000000     0.819000000     7.219000000
H    -4.779000000    -0.511000000     6.638000000
O    -1.766000000    -6.077000000     5.061000000
H    -1.134000000    -6.476000000     4.462000000
H    -2.499000000    -5.823000000     4.502000000
O   -10.432000000    -3.223000000     1.973000000
H    -9.771000000    -3.824000000     1.628000000
H    -9.936000000    -2.599000000     2.503000000
O    -7.311000000    -2.285000000     0.887000000
H    -6.382000000    -2.463000000     1.033000000
H    -7.529000000    -1.610000000     1.530000000
O    -4.790000000    -5.289000000     0.442000000
H    -4.694000000    -4.421000000     0.835000000
H    -5.091000000    -5.115000000    -0.450000000
O    -6.180000000    -6.534000000     2.639000000
H    -5.776000000    -6.608000000     1.774000000
H    -5.823000000    -5.723000000     3.001000000
O    -3.203000000    -6.460000000     2.660000000
H    -3.930000000    -7.028000000     2.919000000
H    -3.607000000    -5.791000000     2.107000000
O    -8.484000000    -5.029000000     0.547000000
H    -7.586000000    -4.816000000     0.802000000
H    -8.401000000    -5.819000000     0.013000000
O    -5.229000000    -4.015000000     3.920000000
H    -6.130000000    -3.819000000     4.177000000
H    -4.943000000    -3.240000000     3.436000000
O    -8.224000000    -3.913000000     4.289000000
H    -8.562000000    -3.382000000     5.010000000
H    -8.662000000    -4.758000000     4.387000000
O    -9.544000000    -1.328000000     3.471000000
H    -8.876000000    -0.819000000     3.012000000
H   -10.320000000    -0.767000000     3.465000000
O    -8.909000000    -2.587000000    -1.460000000
H    -8.692000000    -2.344000000    -0.560000000
H    -8.061000000    -2.693000000    -1.890000000
O    -6.871000000     0.081000000     3.125000000
H    -6.156000000    -0.555000000     3.128000000
H    -6.472000000     0.888000000     2.799000000
O    -6.813000000    -5.400000000    -3.118000000
H    -6.217000000    -4.665000000    -2.975000000
H    -7.646000000    -5.109000000    -2.749000000
O    -7.500000000    -1.355000000     6.167000000
H    -7.568000000    -0.928000000     5.312000000
H    -6.860000000    -0.829000000     6.646000000
O    -0.475000000    -1.932000000     3.085000000
H    -1.367000000    -1.628000000     2.913000000
H     0.055000000    -1.518000000     2.404000000
