215
-1466.89155
C    -2.015000000     3.263000000     3.850000000
H    -2.281000000     4.125000000     3.244000000
C    -0.689000000     2.879000000     3.908000000
C    -0.256000000     1.960000000     4.880000000
H     0.785000000     1.649000000     4.844000000
C     0.191000000     3.197000000     2.746000000
O    -0.285000000     4.322000000     2.048000000
H     0.069000000     2.365000000     2.037000000
O     1.570000000     3.336000000     3.101000000
C     2.569000000     2.929000000     2.207000000
C     3.265000000     1.830000000     2.603000000
H     3.063000000     1.397000000     3.579000000
C     4.238000000     1.250000000     1.818000000
O     4.541000000     0.005000000     2.222000000
C     4.594000000     1.788000000     0.566000000
C     5.568000000     1.073000000    -0.348000000
H     6.162000000     1.787000000    -0.923000000
C     4.819000000     0.120000000    -1.313000000
C     4.239000000     0.544000000    -2.517000000
H     4.357000000     1.606000000    -2.716000000
H     6.302000000     0.492000000     0.214000000
C     3.904000000     3.008000000     0.203000000
H     4.118000000     3.431000000    -0.775000000
C     2.934000000     3.605000000     1.006000000
C     2.298000000     4.825000000     0.567000000
H     2.971000000     5.343000000    -0.119000000
H     2.167000000     5.475000000     1.435000000
C     0.958000000     4.549000000    -0.086000000
C     0.931000000     4.585000000    -1.498000000
H     1.895000000     4.705000000    -1.985000000
C    -0.239000000     4.325000000     0.646000000
C    -1.446000000     4.292000000    -0.075000000
H    -2.414000000     4.165000000     0.402000000
C    -1.398000000     4.124000000    -1.449000000
O    -2.595000000     3.869000000    -2.138000000
C    -2.761000000     2.537000000    -2.601000000
C    -4.120000000     2.040000000    -2.399000000
C    -4.653000000     1.070000000    -3.260000000
H    -4.158000000     0.811000000    -4.193000000
C    -4.768000000     2.425000000    -1.231000000
H    -4.248000000     3.142000000    -0.601000000
O    -2.268000000     2.369000000    -3.919000000
H    -2.090000000     1.891000000    -2.015000000
C    -0.218000000     4.398000000    -2.174000000
C    -0.113000000     4.165000000    -3.719000000
H     0.760000000     4.662000000    -4.148000000
H    -0.968000000     4.579000000    -4.257000000
C     0.065000000     2.678000000    -4.049000000
C     1.332000000     2.241000000    -4.448000000
H     2.166000000     2.930000000    -4.548000000
C    -1.011000000     1.834000000    -4.047000000
C    -0.836000000     0.451000000    -4.267000000
H    -1.736000000    -0.154000000    -4.186000000
C     0.438000000    -0.034000000    -4.583000000
O     0.573000000    -1.421000000    -4.574000000
C     1.041000000    -2.087000000    -3.422000000
C     0.146000000    -3.301000000    -3.205000000
C    -1.133000000    -3.383000000    -3.615000000
H    -1.447000000    -2.557000000    -4.248000000
C     0.666000000    -4.388000000    -2.445000000
H     1.663000000    -4.388000000    -2.012000000
O     2.480000000    -2.403000000    -3.578000000
H     0.941000000    -1.434000000    -2.543000000
C     1.547000000     0.831000000    -4.548000000
C     2.892000000     0.229000000    -4.684000000
H     3.568000000     1.044000000    -4.950000000
H     2.929000000    -0.530000000    -5.468000000
C     3.459000000    -0.271000000    -3.333000000
C     3.351000000    -1.616000000    -2.909000000
C     3.670000000    -1.978000000    -1.631000000
H     3.331000000    -2.949000000    -1.280000000
C     4.382000000    -1.137000000    -0.802000000
O     4.652000000    -1.562000000     0.477000000
C     3.879000000    -1.016000000     1.554000000
H     2.984000000    -0.697000000     1.000000000
C     3.521000000    -2.146000000     2.532000000
C     3.175000000    -1.958000000     3.892000000
H     3.200000000    -0.944000000     4.283000000
C     3.516000000    -3.447000000     2.084000000
H     3.587000000    -3.617000000     1.013000000
C     3.155000000    -4.507000000     2.883000000
O     3.093000000    -5.713000000     2.362000000
C     2.800000000    -4.305000000     4.186000000
H     2.523000000    -5.185000000     4.762000000
C     2.804000000    -3.001000000     4.690000000
O     2.532000000    -2.895000000     6.015000000
C     2.131000000    -1.715000000     6.593000000
C     0.840000000    -1.164000000     6.389000000
H     0.108000000    -1.607000000     5.719000000
C     3.107000000    -0.960000000     7.216000000
H     4.013000000    -1.545000000     7.348000000
C     2.808000000     0.219000000     7.849000000
H     3.519000000     0.662000000     8.540000000
C     1.493000000     0.718000000     7.687000000
H     1.289000000     1.685000000     8.141000000
C     0.530000000     0.029000000     6.974000000
O    -0.761000000     0.507000000     6.793000000
C    -1.137000000     1.459000000     5.800000000
C    -2.513000000     1.719000000     5.547000000
H    -3.292000000     1.292000000     6.173000000
C    -2.947000000     2.721000000     4.716000000
O    -4.288000000     3.125000000     4.705000000
C    -4.917000000     3.551000000     3.558000000
C    -5.289000000     2.604000000     2.614000000
H    -5.060000000     1.551000000     2.753000000
C    -5.176000000     4.880000000     3.405000000
H    -4.897000000     5.623000000     4.148000000
C    -5.682000000     5.296000000     2.180000000
H    -5.950000000     6.345000000     2.091000000
C    -6.075000000     4.381000000     1.215000000
H    -6.628000000     4.732000000     0.347000000
C    -5.834000000     2.987000000     1.387000000
O    -6.409000000     2.012000000     0.484000000
C    -5.849000000     1.715000000    -0.775000000
C    -6.391000000     0.663000000    -1.570000000
H    -7.129000000     0.000000000    -1.126000000
C    -5.817000000     0.411000000    -2.813000000
O    -6.285000000    -0.685000000    -3.488000000
C    -5.397000000    -1.480000000    -4.207000000
C    -4.654000000    -2.436000000    -3.588000000
H    -4.572000000    -2.541000000    -2.510000000
C    -5.438000000    -1.484000000    -5.621000000
H    -6.033000000    -0.745000000    -6.153000000
C    -4.653000000    -2.393000000    -6.391000000
H    -4.510000000    -2.281000000    -7.462000000
C    -3.778000000    -3.264000000    -5.709000000
H    -3.197000000    -3.962000000    -6.306000000
C    -3.916000000    -3.368000000    -4.291000000
O    -3.286000000    -4.523000000    -3.777000000
C    -1.953000000    -4.486000000    -3.381000000
C    -1.500000000    -5.495000000    -2.601000000
H    -2.226000000    -6.286000000    -2.428000000
C    -0.217000000    -5.470000000    -2.145000000
O     0.236000000    -6.529000000    -1.402000000
C     1.493000000    -6.606000000    -0.852000000
C     2.422000000    -7.498000000    -1.379000000
H     2.153000000    -8.097000000    -2.245000000
C     3.611000000    -7.685000000    -0.720000000
H     4.349000000    -8.343000000    -1.172000000
C     3.847000000    -7.065000000     0.493000000
H     4.744000000    -7.327000000     1.047000000
C     2.955000000    -6.155000000     1.030000000
C     1.773000000    -5.899000000     0.349000000
H     0.996000000    -5.316000000     0.837000000
C    -0.991000000    -2.443000000     0.117000000
H    -0.789000000    -3.511000000     0.130000000
C     0.077000000    -1.559000000    -0.055000000
H     1.072000000    -1.938000000    -0.275000000
C    -0.214000000    -0.202000000    -0.156000000
H     0.640000000     0.530000000    -0.272000000
C    -1.490000000     0.302000000    -0.049000000
H    -1.729000000     1.359000000    -0.134000000
C    -2.479000000    -0.602000000     0.323000000
H    -3.506000000    -0.262000000     0.434000000
C    -2.225000000    -1.959000000     0.367000000
C    -3.330000000    -2.889000000     0.707000000
O    -4.500000000    -2.526000000     0.685000000
O    -3.016000000    -4.059000000     0.885000000
O    -3.650000000    -4.347000000     3.411000000
H    -4.105000000    -3.559000000     3.708000000
H    -3.391000000    -4.149000000     2.511000000
O    -5.926000000    -4.916000000     0.843000000
H    -5.256000000    -4.243000000     0.725000000
H    -5.605000000    -5.450000000     1.569000000
O    -1.663000000    -6.275000000     0.938000000
H    -1.407000000    -6.309000000     0.016000000
H    -2.165000000    -5.464000000     1.018000000
O    -4.874000000    -8.421000000     0.558000000
H    -5.022000000    -7.863000000    -0.205000000
H    -5.672000000    -8.944000000     0.630000000
O    -2.217000000    -6.997000000     3.746000000
H    -2.321000000    -6.046000000     3.782000000
H    -1.609000000    -7.144000000     3.021000000
O    -6.908000000    -2.365000000    -0.284000000
H    -6.028000000    -2.388000000     0.093000000
H    -6.813000000    -2.786000000    -1.138000000
O    -8.572000000    -4.951000000     0.490000000
H    -7.652000000    -4.692000000     0.433000000
H    -8.565000000    -5.895000000     0.335000000
O    -5.884000000    -1.349000000     2.671000000
H    -5.295000000    -1.512000000     3.408000000
H    -5.392000000    -1.637000000     1.903000000
O    -2.447000000    -1.934000000     6.970000000
H    -2.098000000    -1.132000000     6.582000000
H    -2.880000000    -1.644000000     7.772000000
O    -8.222000000    -3.247000000     2.556000000
H    -8.336000000    -3.819000000     1.797000000
H    -7.868000000    -2.435000000     2.192000000
O    -7.532000000    -3.529000000    -2.596000000
H    -8.476000000    -3.423000000    -2.476000000
H    -7.450000000    -4.128000000    -3.338000000
O    -8.997000000    -0.376000000     0.452000000
H    -8.393000000    -1.078000000     0.211000000
H    -8.824000000    -0.219000000     1.380000000
O    -8.331000000     0.165000000     2.985000000
H    -8.171000000     1.064000000     3.273000000
H    -7.528000000    -0.305000000     3.211000000
O    -5.342000000    -6.496000000     3.632000000
H    -5.035000000    -5.591000000     3.698000000
H    -4.634000000    -6.957000000     3.182000000
O    -5.949000000    -6.662000000    -1.409000000
H    -5.733000000    -5.910000000    -0.858000000
H    -6.629000000    -6.339000000    -2.000000000
O    -0.391000000    -8.420000000     1.898000000
H    -0.732000000    -7.666000000     1.417000000
H    -0.274000000    -9.096000000     1.230000000
O    -6.907000000    -4.494000000     4.956000000
H    -6.699000000    -5.359000000     4.603000000
H    -7.334000000    -4.036000000     4.232000000
O    -4.495000000    -2.141000000     5.004000000
H    -5.271000000    -2.214000000     5.559000000
H    -3.759000000    -2.263000000     5.605000000
O    -8.838000000    -1.541000000    -4.292000000
H    -8.076000000    -1.788000000    -3.769000000
H    -9.476000000    -1.226000000    -3.652000000
