215
-1452.60994
C    -3.743000000    -3.357000000    -1.922000000
H    -4.007000000    -3.046000000    -2.929000000
C    -3.924000000    -2.540000000    -0.801000000
C    -3.752000000    -3.103000000     0.494000000
H    -3.810000000    -2.456000000     1.365000000
C    -4.003000000    -1.044000000    -0.965000000
O    -4.449000000    -0.628000000    -2.241000000
H    -2.946000000    -0.870000000    -0.713000000
O    -4.905000000    -0.474000000     0.049000000
C    -4.600000000     0.700000000     0.697000000
C    -4.171000000     0.577000000     2.003000000
H    -4.161000000    -0.396000000     2.487000000
C    -3.558000000     1.695000000     2.649000000
O    -3.055000000     1.573000000     3.908000000
C    -3.508000000     2.868000000     1.954000000
C    -2.833000000     4.006000000     2.702000000
H    -3.310000000     4.918000000     2.336000000
C    -1.310000000     3.936000000     2.536000000
C    -0.790000000     4.534000000     1.400000000
H    -1.426000000     4.993000000     0.648000000
H    -3.115000000     4.016000000     3.757000000
C    -4.006000000     3.022000000     0.648000000
H    -3.965000000     3.998000000     0.171000000
C    -4.506000000     1.910000000    -0.037000000
C    -4.900000000     2.154000000    -1.500000000
H    -5.052000000     3.233000000    -1.572000000
H    -5.907000000     1.740000000    -1.590000000
C    -3.932000000     1.708000000    -2.550000000
C    -3.003000000     2.714000000    -3.043000000
H    -3.029000000     3.746000000    -2.704000000
C    -3.650000000     0.321000000    -2.792000000
C    -2.596000000     0.041000000    -3.645000000
H    -2.537000000    -1.006000000    -3.930000000
C    -1.760000000     1.023000000    -4.131000000
O    -0.660000000     0.632000000    -4.891000000
C     0.631000000     0.614000000    -4.269000000
C     1.396000000    -0.723000000    -4.635000000
C     2.773000000    -0.827000000    -4.236000000
H     3.325000000    -0.020000000    -3.760000000
C     0.778000000    -1.809000000    -5.168000000
H    -0.216000000    -1.658000000    -5.581000000
O     1.404000000     1.815000000    -4.502000000
H     0.433000000     0.446000000    -3.200000000
C    -1.991000000     2.382000000    -3.850000000
C    -0.957000000     3.442000000    -4.277000000
H    -1.475000000     4.370000000    -4.527000000
H    -0.494000000     3.255000000    -5.248000000
C     0.177000000     3.506000000    -3.252000000
C     0.124000000     4.474000000    -2.225000000
H    -0.738000000     5.136000000    -2.204000000
C     1.332000000     2.773000000    -3.474000000
C     2.430000000     2.870000000    -2.602000000
H     3.305000000     2.246000000    -2.763000000
C     2.314000000     3.712000000    -1.483000000
O     3.306000000     3.575000000    -0.583000000
C     3.113000000     2.852000000     0.618000000
C     4.278000000     1.911000000     0.916000000
C     5.132000000     1.547000000    -0.048000000
H     5.017000000     1.850000000    -1.085000000
C     4.388000000     1.414000000     2.192000000
H     3.659000000     1.520000000     2.991000000
O     2.772000000     3.812000000     1.627000000
H     2.209000000     2.307000000     0.307000000
C     1.190000000     4.569000000    -1.334000000
C     1.052000000     5.329000000    -0.036000000
H     0.356000000     6.139000000    -0.263000000
H     1.962000000     5.855000000     0.262000000
C     0.522000000     4.466000000     1.146000000
C     1.434000000     3.852000000     1.996000000
C     0.964000000     3.292000000     3.182000000
H     1.671000000     2.734000000     3.790000000
C    -0.390000000     3.266000000     3.411000000
O    -0.879000000     2.428000000     4.428000000
C    -1.526000000     1.274000000     3.964000000
H    -1.133000000     1.042000000     2.963000000
C    -1.172000000     0.097000000     4.818000000
C    -2.103000000    -0.881000000     5.125000000
H    -3.102000000    -0.881000000     4.696000000
C     0.133000000     0.063000000     5.360000000
H     0.828000000     0.813000000     4.991000000
C     0.516000000    -1.018000000     6.095000000
O     1.825000000    -1.246000000     6.416000000
C    -0.391000000    -2.041000000     6.333000000
H    -0.016000000    -2.905000000     6.874000000
C    -1.688000000    -1.938000000     5.899000000
O    -2.589000000    -2.995000000     6.231000000
C    -3.411000000    -3.479000000     5.214000000
C    -2.871000000    -3.869000000     3.970000000
H    -1.791000000    -3.990000000     3.935000000
C    -4.780000000    -3.548000000     5.474000000
H    -5.131000000    -3.283000000     6.468000000
C    -5.588000000    -3.873000000     4.439000000
H    -6.652000000    -3.827000000     4.654000000
C    -5.109000000    -4.312000000     3.163000000
H    -5.861000000    -4.695000000     2.478000000
C    -3.721000000    -4.374000000     2.955000000
O    -3.169000000    -5.004000000     1.840000000
C    -3.438000000    -4.487000000     0.620000000
C    -3.201000000    -5.274000000    -0.560000000
H    -2.796000000    -6.282000000    -0.603000000
C    -3.461000000    -4.737000000    -1.769000000
O    -3.248000000    -5.502000000    -2.839000000
C    -2.628000000    -5.112000000    -3.994000000
C    -1.249000000    -4.852000000    -3.953000000
H    -0.741000000    -4.985000000    -3.001000000
C    -3.298000000    -4.994000000    -5.187000000
H    -4.328000000    -5.314000000    -5.316000000
C    -2.672000000    -4.580000000    -6.327000000
H    -3.325000000    -4.481000000    -7.190000000
C    -1.310000000    -4.364000000    -6.362000000
H    -0.781000000    -4.187000000    -7.296000000
C    -0.570000000    -4.494000000    -5.149000000
O     0.743000000    -4.289000000    -5.190000000
C     1.407000000    -3.085000000    -5.072000000
C     2.703000000    -3.201000000    -4.701000000
H     3.199000000    -4.166000000    -4.759000000
C     3.421000000    -2.069000000    -4.311000000
O     4.758000000    -2.153000000    -3.977000000
C     5.525000000    -1.029000000    -3.693000000
C     5.860000000    -0.803000000    -2.357000000
H     5.481000000    -1.473000000    -1.589000000
C     6.168000000    -0.254000000    -4.695000000
H     5.936000000    -0.508000000    -5.726000000
C     6.974000000     0.829000000    -4.388000000
H     7.252000000     1.428000000    -5.251000000
C     7.351000000     1.028000000    -3.095000000
H     8.120000000     1.762000000    -2.871000000
C     6.770000000     0.232000000    -2.092000000
O     7.139000000     0.352000000    -0.832000000
C     6.239000000     0.686000000     0.192000000
C     6.275000000     0.000000000     1.437000000
H     7.019000000    -0.776000000     1.598000000
C     5.430000000     0.461000000     2.486000000
O     5.505000000    -0.284000000     3.647000000
C     4.793000000     0.098000000     4.733000000
C     5.221000000     1.071000000     5.627000000
H     6.061000000     1.691000000     5.324000000
C     4.378000000     1.465000000     6.619000000
H     4.626000000     2.403000000     7.110000000
C     3.246000000     0.703000000     6.943000000
H     2.617000000     1.054000000     7.757000000
C     2.851000000    -0.371000000     6.168000000
C     3.638000000    -0.636000000     5.022000000
H     3.373000000    -1.457000000     4.361000000
C     2.958000000    -1.778000000    -0.167000000
H     3.965000000    -1.498000000     0.131000000
C     2.038000000    -0.762000000     0.054000000
H     2.198000000     0.241000000     0.440000000
C     0.736000000    -1.024000000    -0.360000000
H    -0.016000000    -0.162000000    -0.376000000
C     0.435000000    -2.158000000    -1.087000000
H    -0.575000000    -2.247000000    -1.479000000
C     1.407000000    -3.123000000    -1.282000000
H     1.183000000    -4.033000000    -1.832000000
C     2.729000000    -3.025000000    -0.846000000
C     3.774000000    -3.998000000    -1.297000000
O     3.470000000    -5.118000000    -1.708000000
O     4.936000000    -3.736000000    -0.989000000
O     8.302000000    -6.739000000    -2.726000000
H     7.825000000    -5.926000000    -2.560000000
H     7.843000000    -7.138000000    -3.465000000
O     2.620000000    -4.684000000     3.545000000
H     3.080000000    -4.009000000     3.046000000
H     3.071000000    -4.707000000     4.388000000
O     8.237000000    -5.720000000     1.839000000
H     7.460000000    -5.499000000     1.326000000
H     8.196000000    -6.671000000     1.939000000
O     7.208000000    -4.156000000    -2.383000000
H     6.579000000    -3.812000000    -1.748000000
H     6.730000000    -4.165000000    -3.212000000
O     1.849000000    -6.948000000    -0.237000000
H     2.405000000    -6.250000000    -0.585000000
H     2.370000000    -7.342000000     0.463000000
O     7.967000000    -3.234000000     2.918000000
H     7.512000000    -4.040000000     2.676000000
H     8.660000000    -3.144000000     2.264000000
O     8.474000000    -2.968000000     0.063000000
H     7.704000000    -3.467000000    -0.210000000
H     8.845000000    -2.635000000    -0.754000000
O     1.981000000    -6.786000000    -3.285000000
H     2.214000000    -6.518000000    -4.174000000
H     2.487000000    -6.202000000    -2.719000000
O     7.448000000    -8.376000000    -0.756000000
H     7.930000000    -7.864000000    -1.404000000
H     6.569000000    -7.997000000    -0.756000000
O     4.561000000    -3.028000000     2.445000000
H     4.744000000    -2.258000000     1.907000000
H     5.015000000    -3.744000000     2.001000000
O     3.383000000    -9.223000000    -2.213000000
H     3.217000000    -9.559000000    -1.332000000
H     2.786000000    -8.479000000    -2.301000000
O     0.053000000    -6.100000000     2.648000000
H    -0.124000000    -5.387000000     2.034000000
H     0.959000000    -5.960000000     2.924000000
O    -0.498000000    -7.952000000    -0.708000000
H    -0.907000000    -7.097000000    -0.843000000
H     0.428000000    -7.754000000    -0.567000000
O    -0.204000000    -3.381000000     1.716000000
H     0.631000000    -3.096000000     1.342000000
H    -0.800000000    -2.649000000     1.556000000
O     3.987000000    -6.632000000     2.099000000
H     3.692000000    -6.088000000     2.829000000
H     4.361000000    -7.409000000     2.515000000
O     6.706000000    -4.238000000    -5.120000000
H     6.255000000    -3.446000000    -5.414000000
H     6.565000000    -4.869000000    -5.826000000
O     2.988000000    -6.353000000    -5.857000000
H     3.797000000    -6.823000000    -6.058000000
H     2.294000000    -6.992000000    -6.019000000
O     5.913000000    -4.887000000     0.972000000
H     5.647000000    -4.440000000     0.168000000
H     5.361000000    -5.668000000     1.007000000
O     5.269000000    -7.034000000    -1.741000000
H     4.707000000    -6.261000000    -1.802000000
H     4.714000000    -7.756000000    -2.035000000
