215
-1448.68124
C    -1.705000000     3.235000000     3.898000000
H    -2.139000000     3.824000000     3.094000000
C    -0.347000000     2.880000000     3.940000000
C     0.048000000     2.001000000     4.918000000
H     0.995000000     1.468000000     4.905000000
C     0.531000000     3.224000000     2.761000000
O     0.210000000     4.472000000     2.165000000
H     0.383000000     2.544000000     1.909000000
O     1.895000000     3.331000000     3.210000000
C     2.881000000     2.861000000     2.391000000
C     3.433000000     1.647000000     2.704000000
H     3.085000000     1.084000000     3.566000000
C     4.212000000     0.959000000     1.799000000
O     4.422000000    -0.365000000     2.041000000
C     4.599000000     1.592000000     0.536000000
C     5.503000000     0.913000000    -0.472000000
H     6.071000000     1.614000000    -1.086000000
C     4.681000000     0.035000000    -1.454000000
C     4.384000000     0.464000000    -2.782000000
H     4.664000000     1.473000000    -3.075000000
H     6.286000000     0.297000000    -0.025000000
C     4.172000000     2.880000000     0.370000000
H     4.538000000     3.369000000    -0.529000000
C     3.310000000     3.502000000     1.219000000
C     2.816000000     4.864000000     0.744000000
H     3.520000000     5.354000000     0.067000000
H     2.840000000     5.565000000     1.580000000
C     1.466000000     4.661000000     0.070000000
C     1.380000000     4.719000000    -1.311000000
H     2.276000000     4.931000000    -1.889000000
C     0.254000000     4.595000000     0.759000000
C    -0.988000000     4.347000000     0.181000000
H    -1.781000000     4.129000000     0.892000000
C    -1.038000000     4.187000000    -1.176000000
O    -2.204000000     3.852000000    -1.741000000
C    -2.433000000     2.512000000    -2.231000000
C    -3.815000000     2.022000000    -1.865000000
C    -4.543000000     1.148000000    -2.698000000
H    -4.007000000     0.772000000    -3.565000000
C    -4.429000000     2.310000000    -0.661000000
H    -4.032000000     3.061000000     0.017000000
O    -2.094000000     2.477000000    -3.622000000
H    -1.803000000     1.743000000    -1.760000000
C     0.139000000     4.436000000    -1.962000000
C     0.157000000     4.264000000    -3.533000000
H     1.011000000     4.863000000    -3.856000000
H    -0.753000000     4.776000000    -3.852000000
C     0.247000000     2.837000000    -3.963000000
C     1.477000000     2.265000000    -4.229000000
H     2.335000000     2.933000000    -4.197000000
C    -0.854000000     2.076000000    -4.093000000
C    -0.752000000     0.684000000    -4.331000000
H    -1.690000000     0.155000000    -4.183000000
C     0.447000000     0.082000000    -4.669000000
O     0.527000000    -1.321000000    -4.758000000
C     0.994000000    -1.984000000    -3.613000000
C     0.109000000    -3.150000000    -3.314000000
C    -1.249000000    -3.017000000    -3.609000000
H    -1.589000000    -2.080000000    -4.042000000
C     0.527000000    -4.315000000    -2.746000000
H     1.592000000    -4.531000000    -2.766000000
O     2.330000000    -2.385000000    -3.896000000
H     0.892000000    -1.316000000    -2.745000000
C     1.594000000     0.898000000    -4.613000000
C     2.956000000     0.336000000    -4.900000000
H     3.642000000     1.055000000    -5.352000000
H     2.900000000    -0.476000000    -5.629000000
C     3.546000000    -0.262000000    -3.612000000
C     3.242000000    -1.547000000    -3.222000000
C     3.679000000    -2.060000000    -1.990000000
H     3.347000000    -3.081000000    -1.824000000
C     4.280000000    -1.258000000    -1.116000000
O     4.390000000    -1.751000000     0.141000000
C     3.641000000    -1.303000000     1.221000000
H     2.871000000    -0.662000000     0.768000000
C     2.999000000    -2.402000000     2.005000000
C     2.638000000    -2.205000000     3.376000000
H     2.674000000    -1.218000000     3.831000000
C     3.097000000    -3.697000000     1.459000000
H     3.726000000    -3.929000000     0.603000000
C     2.796000000    -4.840000000     2.293000000
O     3.102000000    -6.146000000     1.905000000
C     2.359000000    -4.596000000     3.610000000
H     2.214000000    -5.328000000     4.400000000
C     2.295000000    -3.347000000     4.112000000
O     1.924000000    -3.268000000     5.409000000
C     1.846000000    -2.034000000     6.095000000
C     0.686000000    -1.286000000     6.041000000
H    -0.139000000    -1.521000000     5.373000000
C     2.837000000    -1.649000000     6.974000000
H     3.759000000    -2.218000000     7.072000000
C     2.715000000    -0.516000000     7.815000000
H     3.514000000    -0.177000000     8.470000000
C     1.551000000     0.232000000     7.760000000
H     1.394000000     1.071000000     8.432000000
C     0.585000000    -0.129000000     6.870000000
O    -0.633000000     0.564000000     6.828000000
C    -0.903000000     1.583000000     5.900000000
C    -2.231000000     1.968000000     5.850000000
H    -3.051000000     1.612000000     6.469000000
C    -2.690000000     2.785000000     4.847000000
O    -4.003000000     3.132000000     4.824000000
C    -4.753000000     3.517000000     3.741000000
C    -5.084000000     2.671000000     2.734000000
H    -4.800000000     1.622000000     2.703000000
C    -5.254000000     4.815000000     3.857000000
H    -4.994000000     5.423000000     4.719000000
C    -6.066000000     5.377000000     2.837000000
H    -6.459000000     6.375000000     3.014000000
C    -6.300000000     4.582000000     1.745000000
H    -6.876000000     4.992000000     0.919000000
C    -5.879000000     3.232000000     1.713000000
O    -6.432000000     2.417000000     0.685000000
C    -5.694000000     1.795000000    -0.274000000
C    -6.418000000     1.080000000    -1.204000000
H    -7.448000000     0.820000000    -0.973000000
C    -5.799000000     0.666000000    -2.412000000
O    -6.352000000    -0.181000000    -3.314000000
C    -5.642000000    -1.115000000    -4.049000000
C    -4.707000000    -1.905000000    -3.361000000
H    -4.625000000    -1.833000000    -2.280000000
C    -5.834000000    -1.250000000    -5.447000000
H    -6.443000000    -0.562000000    -6.028000000
C    -5.115000000    -2.237000000    -6.167000000
H    -5.218000000    -2.226000000    -7.249000000
C    -4.240000000    -3.058000000    -5.460000000
H    -3.748000000    -3.872000000    -5.985000000
C    -3.980000000    -2.874000000    -4.079000000
O    -3.555000000    -3.899000000    -3.378000000
C    -2.216000000    -3.963000000    -3.152000000
C    -1.767000000    -5.045000000    -2.435000000
H    -2.518000000    -5.760000000    -2.111000000
C    -0.394000000    -5.280000000    -2.325000000
O    -0.043000000    -6.458000000    -1.617000000
C     1.186000000    -6.714000000    -1.124000000
C     2.108000000    -7.510000000    -1.858000000
H     1.843000000    -8.079000000    -2.745000000
C     3.417000000    -7.791000000    -1.343000000
H     4.068000000    -8.310000000    -2.042000000
C     3.774000000    -7.343000000    -0.084000000
H     4.735000000    -7.544000000     0.384000000
C     2.831000000    -6.545000000     0.607000000
C     1.473000000    -6.352000000     0.183000000
H     0.691000000    -5.879000000     0.771000000
C    -1.243000000    -2.441000000     0.064000000
H    -1.092000000    -3.517000000     0.028000000
C    -0.200000000    -1.521000000    -0.165000000
H     0.815000000    -1.854000000    -0.365000000
C    -0.443000000    -0.137000000    -0.080000000
H     0.364000000     0.620000000    -0.210000000
C    -1.735000000     0.292000000     0.227000000
H    -1.938000000     1.360000000     0.244000000
C    -2.726000000    -0.662000000     0.423000000
H    -3.740000000    -0.360000000     0.671000000
C    -2.534000000    -2.046000000     0.266000000
C    -3.713000000    -3.013000000     0.500000000
O    -4.779000000    -2.451000000     0.640000000
O    -3.539000000    -4.186000000     0.413000000
O    -3.977000000    -6.017000000     3.736000000
H    -4.738000000    -5.584000000     3.349000000
H    -3.358000000    -6.106000000     3.011000000
O    -0.928000000    -4.488000000     4.010000000
H    -1.227000000    -3.579000000     4.018000000
H    -1.438000000    -4.903000000     3.314000000
O    -1.785000000    -5.671000000     1.517000000
H    -1.684000000    -6.438000000     0.953000000
H    -2.384000000    -5.098000000     1.037000000
O    -7.398000000    -7.319000000     1.911000000
H    -6.680000000    -6.730000000     1.678000000
H    -7.081000000    -7.790000000     2.681000000
O    -4.859000000    -6.402000000     0.567000000
H    -4.337000000    -5.604000000     0.642000000
H    -4.353000000    -6.965000000    -0.019000000
O    -0.092000000    -0.662000000     2.978000000
H    -0.103000000    -1.030000000     2.094000000
H    -0.917000000    -0.951000000     3.368000000
O    -6.245000000    -5.573000000     5.691000000
H    -5.551000000    -5.668000000     5.039000000
H    -6.852000000    -4.942000000     5.304000000
O    -5.820000000    -5.985000000    -4.315000000
H    -5.746000000    -5.472000000    -3.511000000
H    -4.922000000    -6.246000000    -4.517000000
O    -9.275000000    -5.627000000    -1.236000000
H    -9.587000000    -6.458000000    -0.878000000
H    -8.349000000    -5.596000000    -0.997000000
O    -7.972000000    -3.826000000     4.832000000
H    -7.756000000    -3.665000000     3.914000000
H    -8.928000000    -3.848000000     4.854000000
O    -5.015000000    -1.356000000     2.978000000
H    -5.912000000    -1.036000000     3.066000000
H    -4.922000000    -1.557000000     2.047000000
O    -7.483000000    -1.478000000     0.775000000
H    -6.665000000    -1.784000000     0.385000000
H    -7.216000000    -0.787000000     1.382000000
O    -6.270000000    -4.776000000    -1.335000000
H    -6.703000000    -3.978000000    -1.640000000
H    -5.539000000    -4.463000000    -0.802000000
O    -7.977000000    -2.410000000    -2.191000000
H    -8.608000000    -2.818000000    -2.784000000
H    -8.078000000    -1.471000000    -2.343000000
O    -2.818000000    -8.166000000    -0.413000000
H    -3.235000000    -8.076000000    -1.270000000
H    -2.525000000    -9.077000000    -0.383000000
O    -7.397000000    -0.045000000     2.943000000
H    -8.326000000     0.181000000     2.996000000
H    -6.993000000     0.428000000     3.670000000
O    -2.671000000    -1.578000000     3.984000000
H    -2.852000000    -1.453000000     4.916000000
H    -3.535000000    -1.632000000     3.577000000
O    -7.008000000    -7.847000000    -1.122000000
H    -6.412000000    -7.113000000    -0.973000000
H    -7.578000000    -7.853000000    -0.354000000
O    -5.754000000    -4.127000000     2.564000000
H    -5.310000000    -3.920000000     1.742000000
H    -5.724000000    -3.311000000     3.065000000
