215
-1419.93403
C    -2.307000000     2.684000000     3.262000000
H    -2.685000000     3.452000000     2.592000000
C    -0.942000000     2.496000000     3.423000000
C    -0.588000000     1.589000000     4.412000000
H     0.471000000     1.360000000     4.503000000
C     0.122000000     3.257000000     2.542000000
O    -0.402000000     4.507000000     2.066000000
H     0.339000000     2.632000000     1.664000000
O     1.424000000     3.480000000     3.153000000
C     2.453000000     3.025000000     2.421000000
C     3.044000000     1.813000000     2.801000000
H     2.676000000     1.351000000     3.714000000
C     4.080000000     1.269000000     2.053000000
O     4.504000000    -0.015000000     2.308000000
C     4.443000000     1.821000000     0.868000000
C     5.362000000     1.111000000    -0.118000000
H     5.977000000     1.873000000    -0.601000000
C     4.714000000     0.083000000    -1.129000000
C     4.405000000     0.532000000    -2.398000000
H     4.816000000     1.489000000    -2.708000000
H     6.080000000     0.404000000     0.301000000
C     3.959000000     3.083000000     0.498000000
H     4.292000000     3.408000000    -0.485000000
C     2.981000000     3.722000000     1.341000000
C     2.331000000     5.068000000     0.932000000
H     3.003000000     5.504000000     0.189000000
H     2.291000000     5.646000000     1.858000000
C     0.999000000     4.983000000     0.125000000
C     1.180000000     4.889000000    -1.264000000
H     2.145000000     5.047000000    -1.738000000
C    -0.262000000     4.745000000     0.696000000
C    -1.396000000     4.561000000    -0.148000000
H    -2.377000000     4.459000000     0.310000000
C    -1.199000000     4.470000000    -1.512000000
O    -2.280000000     4.141000000    -2.245000000
C    -2.334000000     2.668000000    -2.571000000
C    -3.645000000     1.967000000    -2.167000000
C    -3.830000000     0.566000000    -2.408000000
H    -3.117000000    -0.072000000    -2.923000000
C    -4.644000000     2.665000000    -1.490000000
H    -4.585000000     3.718000000    -1.226000000
O    -1.940000000     2.525000000    -3.899000000
H    -1.559000000     2.196000000    -1.949000000
C     0.066000000     4.630000000    -2.091000000
C     0.303000000     4.367000000    -3.538000000
H     1.230000000     4.864000000    -3.832000000
H    -0.462000000     4.803000000    -4.184000000
C     0.490000000     2.856000000    -3.909000000
C     1.668000000     2.309000000    -4.024000000
H     2.581000000     2.877000000    -3.863000000
C    -0.627000000     2.095000000    -4.106000000
C    -0.543000000     0.780000000    -4.428000000
H    -1.428000000     0.159000000    -4.548000000
C     0.702000000     0.190000000    -4.430000000
O     0.844000000    -1.201000000    -4.756000000
C     1.192000000    -2.091000000    -3.676000000
C     0.404000000    -3.374000000    -3.632000000
C    -0.744000000    -3.503000000    -4.431000000
H    -0.999000000    -2.677000000    -5.090000000
C     0.636000000    -4.323000000    -2.674000000
H     1.532000000    -4.224000000    -2.067000000
O     2.573000000    -2.372000000    -3.624000000
H     0.948000000    -1.565000000    -2.741000000
C     1.848000000     0.919000000    -4.333000000
C     3.232000000     0.284000000    -4.518000000
H     3.964000000     0.904000000    -5.039000000
H     3.199000000    -0.562000000    -5.209000000
C     3.723000000    -0.293000000    -3.206000000
C     3.335000000    -1.600000000    -2.791000000
C     3.700000000    -2.083000000    -1.557000000
H     3.402000000    -3.069000000    -1.210000000
C     4.361000000    -1.208000000    -0.732000000
O     4.664000000    -1.557000000     0.492000000
C     3.824000000    -1.080000000     1.565000000
H     2.908000000    -0.635000000     1.149000000
C     3.575000000    -2.191000000     2.551000000
C     3.675000000    -1.989000000     3.953000000
H     3.999000000    -1.061000000     4.419000000
C     3.215000000    -3.444000000     2.091000000
H     3.288000000    -3.671000000     1.030000000
C     2.823000000    -4.461000000     2.974000000
O     2.247000000    -5.574000000     2.374000000
C     2.732000000    -4.157000000     4.298000000
H     2.190000000    -4.856000000     4.930000000
C     3.217000000    -2.953000000     4.845000000
O     2.925000000    -2.767000000     6.138000000
C     2.247000000    -1.658000000     6.547000000
C     0.933000000    -1.421000000     6.102000000
H     0.465000000    -2.152000000     5.448000000
C     2.882000000    -0.825000000     7.495000000
H     3.828000000    -1.078000000     7.967000000
C     2.157000000     0.250000000     7.939000000
H     2.573000000     0.876000000     8.724000000
C     0.824000000     0.504000000     7.569000000
H     0.289000000     1.317000000     8.053000000
C     0.198000000    -0.335000000     6.609000000
O    -1.118000000    -0.017000000     6.147000000
C    -1.460000000     0.930000000     5.239000000
C    -2.776000000     1.159000000     5.084000000
H    -3.513000000     0.530000000     5.576000000
C    -3.233000000     2.122000000     4.199000000
O    -4.562000000     2.279000000     4.180000000
C    -5.258000000     2.973000000     3.238000000
C    -5.513000000     2.502000000     2.005000000
H    -5.032000000     1.560000000     1.757000000
C    -5.963000000     4.136000000     3.610000000
H    -5.787000000     4.568000000     4.592000000
C    -6.677000000     4.835000000     2.656000000
H    -6.993000000     5.837000000     2.937000000
C    -7.002000000     4.342000000     1.450000000
H    -7.840000000     4.828000000     0.956000000
C    -6.419000000     3.116000000     1.119000000
O    -6.641000000     2.563000000    -0.176000000
C    -5.728000000     1.954000000    -0.950000000
C    -5.852000000     0.571000000    -1.202000000
H    -6.743000000     0.109000000    -0.783000000
C    -4.906000000    -0.094000000    -1.953000000
O    -5.064000000    -1.452000000    -2.174000000
C    -4.787000000    -1.977000000    -3.480000000
C    -3.807000000    -2.963000000    -3.640000000
H    -3.232000000    -3.373000000    -2.814000000
C    -5.480000000    -1.503000000    -4.603000000
H    -6.227000000    -0.727000000    -4.459000000
C    -5.277000000    -2.162000000    -5.836000000
H    -5.823000000    -1.869000000    -6.729000000
C    -4.296000000    -3.098000000    -5.989000000
H    -4.072000000    -3.553000000    -6.951000000
C    -3.605000000    -3.507000000    -4.899000000
O    -2.709000000    -4.519000000    -5.076000000
C    -1.602000000    -4.552000000    -4.312000000
C    -1.229000000    -5.617000000    -3.484000000
H    -1.862000000    -6.492000000    -3.362000000
C    -0.111000000    -5.514000000    -2.671000000
O     0.170000000    -6.524000000    -1.835000000
C     1.364000000    -6.509000000    -1.070000000
C     2.677000000    -6.781000000    -1.564000000
H     2.767000000    -7.167000000    -2.576000000
C     3.785000000    -6.726000000    -0.764000000
H     4.779000000    -7.017000000    -1.095000000
C     3.595000000    -6.277000000     0.534000000
H     4.473000000    -6.210000000     1.172000000
C     2.351000000    -5.916000000     1.019000000
C     1.175000000    -6.149000000     0.243000000
H     0.217000000    -5.772000000     0.592000000
C    -2.177000000    -2.877000000    -0.248000000
H    -2.173000000    -3.915000000    -0.570000000
C    -0.984000000    -2.122000000    -0.310000000
H    -0.091000000    -2.598000000    -0.708000000
C    -0.957000000    -0.778000000     0.128000000
H    -0.109000000    -0.039000000    -0.019000000
C    -2.103000000    -0.178000000     0.678000000
H    -2.026000000     0.862000000     0.983000000
C    -3.288000000    -0.914000000     0.668000000
H    -4.222000000    -0.432000000     0.945000000
C    -3.297000000    -2.271000000     0.317000000
C    -4.613000000    -3.026000000     0.440000000
O    -5.569000000    -2.490000000     0.976000000
O    -4.621000000    -4.210000000     0.110000000
O    -4.515000000    -4.858000000     4.320000000
H    -3.809000000    -4.939000000     3.679000000
H    -4.205000000    -4.192000000     4.934000000
O    -9.124000000    -5.783000000    -1.303000000
H    -8.397000000    -5.327000000    -1.728000000
H    -9.850000000    -5.161000000    -1.338000000
O    -1.465000000    -5.347000000     4.073000000
H    -1.567000000    -4.398000000     4.010000000
H    -1.877000000    -5.686000000     3.278000000
O    -2.795000000    -5.792000000     1.762000000
H    -2.572000000    -6.438000000     1.092000000
H    -3.276000000    -5.113000000     1.290000000
O    -6.401000000    -7.066000000     0.062000000
H    -5.686000000    -6.676000000    -0.440000000
H    -6.579000000    -6.433000000     0.758000000
O    -4.600000000    -5.755000000    -1.706000000
H    -4.570000000    -5.108000000    -1.001000000
H    -3.688000000    -5.853000000    -1.980000000
O    -1.671000000    -2.767000000     4.016000000
H    -1.692000000    -2.227000000     3.227000000
H    -2.404000000    -2.450000000     4.544000000
O    -3.540000000    -7.500000000     5.316000000
H    -3.699000000    -6.640000000     4.926000000
H    -3.668000000    -7.364000000     6.255000000
O    -6.845000000    -5.200000000     5.830000000
H    -6.029000000    -5.432000000     5.386000000
H    -7.381000000    -5.991000000     5.776000000
O    -9.455000000    -3.043000000    -3.107000000
H    -8.582000000    -3.182000000    -2.741000000
H    -9.368000000    -2.255000000    -3.643000000
O    -5.770000000    -0.955000000     3.112000000
H    -6.661000000    -0.926000000     2.764000000
H    -5.255000000    -1.368000000     2.418000000
O    -9.468000000    -4.633000000     1.611000000
H    -9.554000000    -4.332000000     2.516000000
H    -8.567000000    -4.418000000     1.372000000
O    -7.997000000    -2.204000000     0.464000000
H    -7.063000000    -2.291000000     0.655000000
H    -8.411000000    -2.137000000     1.325000000
O   -10.132000000    -0.823000000    -0.784000000
H    -9.507000000    -1.449000000    -0.419000000
H   -10.403000000    -0.290000000    -0.037000000
O    -6.963000000    -4.621000000    -2.287000000
H    -6.477000000    -3.920000000    -1.853000000
H    -6.373000000    -5.374000000    -2.262000000
O    -2.187000000    -7.285000000    -0.308000000
H    -1.358000000    -7.218000000    -0.783000000
H    -2.680000000    -7.955000000    -0.780000000
O    -8.615000000    -1.055000000     3.148000000
H    -8.747000000    -0.264000000     3.670000000
H    -9.440000000    -1.535000000     3.228000000
O    -4.115000000    -1.927000000     4.982000000
H    -4.517000000    -1.632000000     5.799000000
H    -4.668000000    -1.556000000     4.295000000
O    -6.572000000    -4.968000000     1.967000000
H    -5.967000000    -4.361000000     1.540000000
H    -6.493000000    -4.769000000     2.900000000
