215
-1457.32211
C    -2.178000000     2.680000000     3.625000000
H    -2.620000000     3.084000000     2.718000000
C    -0.810000000     2.828000000     3.784000000
C    -0.173000000     2.240000000     4.923000000
H     0.904000000     2.098000000     4.926000000
C     0.081000000     3.385000000     2.581000000
O    -0.501000000     4.603000000     2.010000000
H     0.085000000     2.580000000     1.830000000
O     1.369000000     3.650000000     3.065000000
C     2.387000000     3.201000000     2.318000000
C     2.936000000     2.022000000     2.610000000
H     2.567000000     1.466000000     3.468000000
C     3.931000000     1.448000000     1.784000000
O     4.343000000     0.208000000     2.099000000
C     4.341000000     2.128000000     0.575000000
C     5.279000000     1.488000000    -0.455000000
H     5.665000000     2.317000000    -1.052000000
C     4.634000000     0.495000000    -1.384000000
C     4.254000000     0.914000000    -2.626000000
H     4.430000000     1.941000000    -2.937000000
H     6.159000000     1.080000000     0.048000000
C     3.771000000     3.385000000     0.285000000
H     4.032000000     3.920000000    -0.625000000
C     2.822000000     3.895000000     1.180000000
C     2.120000000     5.215000000     0.761000000
H     2.854000000     5.763000000     0.167000000
H     1.815000000     5.801000000     1.631000000
C     0.833000000     4.839000000     0.023000000
C     0.816000000     4.758000000    -1.345000000
H     1.709000000     5.008000000    -1.912000000
C    -0.380000000     4.606000000     0.699000000
C    -1.517000000     4.347000000    -0.007000000
H    -2.439000000     4.238000000     0.558000000
C    -1.490000000     4.114000000    -1.371000000
O    -2.619000000     3.623000000    -1.952000000
C    -2.595000000     2.237000000    -2.421000000
C    -3.965000000     1.552000000    -2.133000000
C    -4.280000000     0.347000000    -2.667000000
H    -3.623000000     0.020000000    -3.469000000
C    -4.756000000     2.068000000    -1.113000000
H    -4.495000000     3.035000000    -0.689000000
O    -2.291000000     2.225000000    -3.881000000
H    -1.824000000     1.673000000    -1.876000000
C    -0.255000000     4.294000000    -2.079000000
C    -0.215000000     4.226000000    -3.623000000
H     0.618000000     4.863000000    -3.926000000
H    -1.105000000     4.669000000    -4.074000000
C     0.053000000     2.773000000    -4.083000000
C     1.373000000     2.373000000    -4.280000000
H     2.103000000     3.155000000    -4.084000000
C    -0.975000000     1.874000000    -4.266000000
C    -0.692000000     0.540000000    -4.561000000
H    -1.488000000    -0.197000000    -4.620000000
C     0.619000000     0.103000000    -4.801000000
O     0.885000000    -1.210000000    -4.968000000
C     1.288000000    -1.953000000    -3.806000000
C     0.462000000    -3.283000000    -3.795000000
C    -0.708000000    -3.419000000    -4.475000000
H    -1.012000000    -2.544000000    -5.044000000
C     0.917000000    -4.297000000    -2.920000000
H     1.786000000    -4.177000000    -2.278000000
O     2.712000000    -2.185000000    -3.814000000
H     1.080000000    -1.403000000    -2.877000000
C     1.683000000     1.027000000    -4.635000000
C     3.135000000     0.589000000    -4.773000000
H     3.742000000     1.466000000    -5.005000000
H     3.227000000    -0.126000000    -5.594000000
C     3.634000000     0.058000000    -3.479000000
C     3.443000000    -1.279000000    -3.102000000
C     3.838000000    -1.732000000    -1.861000000
H     3.587000000    -2.762000000    -1.618000000
C     4.407000000    -0.845000000    -0.947000000
O     4.661000000    -1.293000000     0.351000000
C     3.724000000    -0.854000000     1.402000000
H     2.749000000    -0.520000000     1.019000000
C     3.414000000    -2.020000000     2.361000000
C     3.179000000    -1.786000000     3.710000000
H     3.219000000    -0.755000000     4.052000000
C     3.091000000    -3.305000000     1.839000000
H     3.109000000    -3.451000000     0.762000000
C     2.777000000    -4.280000000     2.778000000
O     2.419000000    -5.569000000     2.417000000
C     2.747000000    -4.044000000     4.151000000
H     2.466000000    -4.903000000     4.755000000
C     2.813000000    -2.750000000     4.602000000
O     2.517000000    -2.543000000     5.937000000
C     2.181000000    -1.306000000     6.580000000
C     1.017000000    -0.653000000     6.438000000
H     0.301000000    -1.118000000     5.764000000
C     3.205000000    -0.767000000     7.415000000
H     4.145000000    -1.311000000     7.464000000
C     3.099000000     0.375000000     8.160000000
H     3.840000000     0.759000000     8.855000000
C     1.793000000     0.958000000     8.112000000
H     1.506000000     1.779000000     8.764000000
C     0.804000000     0.510000000     7.168000000
O    -0.430000000     1.132000000     7.089000000
C    -0.970000000     1.658000000     5.898000000
C    -2.356000000     1.634000000     5.761000000
H    -2.928000000     1.374000000     6.649000000
C    -2.977000000     2.109000000     4.631000000
O    -4.340000000     1.975000000     4.494000000
C    -5.055000000     2.608000000     3.550000000
C    -5.521000000     1.921000000     2.413000000
H    -5.148000000     0.913000000     2.252000000
C    -5.304000000     3.963000000     3.741000000
H    -4.863000000     4.397000000     4.635000000
C    -6.088000000     4.627000000     2.756000000
H    -6.263000000     5.697000000     2.828000000
C    -6.570000000     3.962000000     1.616000000
H    -7.182000000     4.477000000     0.880000000
C    -6.254000000     2.594000000     1.441000000
O    -6.727000000     1.867000000     0.281000000
C    -5.960000000     1.454000000    -0.724000000
C    -6.218000000     0.093000000    -1.255000000
H    -6.873000000    -0.598000000    -0.730000000
C    -5.376000000    -0.394000000    -2.200000000
O    -5.645000000    -1.716000000    -2.500000000
C    -5.119000000    -2.294000000    -3.658000000
C    -4.020000000    -3.223000000    -3.676000000
H    -3.697000000    -3.565000000    -2.696000000
C    -5.727000000    -1.929000000    -4.850000000
H    -6.485000000    -1.152000000    -4.794000000
C    -5.313000000    -2.475000000    -6.057000000
H    -5.680000000    -2.111000000    -7.013000000
C    -4.327000000    -3.443000000    -6.060000000
H    -4.131000000    -3.829000000    -7.057000000
C    -3.750000000    -3.843000000    -4.894000000
O    -2.732000000    -4.853000000    -4.907000000
C    -1.487000000    -4.608000000    -4.321000000
C    -1.013000000    -5.619000000    -3.460000000
H    -1.423000000    -6.626000000    -3.450000000
C     0.162000000    -5.446000000    -2.742000000
O     0.656000000    -6.501000000    -1.978000000
C     1.679000000    -6.500000000    -1.022000000
C     2.778000000    -7.333000000    -1.265000000
H     2.812000000    -7.860000000    -2.215000000
C     3.746000000    -7.526000000    -0.313000000
H     4.533000000    -8.202000000    -0.636000000
C     3.646000000    -6.904000000     0.887000000
H     4.450000000    -7.005000000     1.612000000
C     2.578000000    -6.087000000     1.135000000
C     1.598000000    -5.884000000     0.187000000
H     0.825000000    -5.170000000     0.458000000
C    -1.263000000    -2.381000000    -0.244000000
H    -1.148000000    -3.420000000    -0.543000000
C    -0.240000000    -1.469000000    -0.535000000
H     0.693000000    -1.786000000    -0.995000000
C    -0.506000000    -0.161000000    -0.269000000
H     0.135000000     0.625000000    -0.328000000
C    -1.790000000     0.199000000     0.266000000
H    -1.985000000     1.251000000     0.458000000
C    -2.704000000    -0.708000000     0.548000000
H    -3.613000000    -0.243000000     0.920000000
C    -2.541000000    -2.011000000     0.257000000
C    -3.758000000    -2.938000000     0.335000000
O    -4.873000000    -2.467000000     0.659000000
O    -3.629000000    -4.102000000     0.145000000
O    -7.865000000    -5.259000000     2.300000000
H    -6.995000000    -5.374000000     2.684000000
H    -7.755000000    -4.549000000     1.667000000
O    -0.619000000    -5.821000000     3.824000000
H    -0.485000000    -4.892000000     4.012000000
H    -1.129000000    -5.829000000     3.014000000
O    -3.217000000    -8.079000000    -2.219000000
H    -3.808000000    -8.315000000    -2.935000000
H    -2.382000000    -8.484000000    -2.456000000
O    -2.272000000    -5.891000000     1.552000000
H    -2.050000000    -6.582000000     0.928000000
H    -2.828000000    -5.290000000     1.057000000
O    -4.740000000    -5.674000000    -1.770000000
H    -4.523000000    -5.063000000    -1.065000000
H    -4.078000000    -6.361000000    -1.703000000
O    -0.415000000    -0.496000000     3.244000000
H    -1.015000000    -0.018000000     3.817000000
H    -0.643000000    -0.204000000     2.362000000
O    -8.153000000    -2.751000000    -2.680000000
H    -7.895000000    -2.858000000    -1.764000000
H    -7.848000000    -1.874000000    -2.913000000
O    -6.050000000    -8.144000000    -0.912000000
H    -5.661000000    -7.306000000    -1.164000000
H    -6.892000000    -7.909000000    -0.522000000
O    -3.544000000    -1.750000000     3.975000000
H    -4.376000000    -1.396000000     4.291000000
H    -3.542000000    -1.557000000     3.038000000
O    -8.270000000    -6.575000000    -0.138000000
H    -9.177000000    -6.483000000    -0.430000000
H    -8.321000000    -6.541000000     0.817000000
O    -4.478000000    -3.626000000     6.101000000
H    -4.378000000    -3.140000000     5.282000000
H    -5.032000000    -3.066000000     6.645000000
O    -6.946000000    -2.100000000     2.211000000
H    -6.280000000    -2.071000000     1.524000000
H    -6.696000000    -2.845000000     2.757000000
O    -6.969000000    -6.399000000    -3.004000000
H    -7.686000000    -6.463000000    -2.373000000
H    -6.214000000    -6.125000000    -2.483000000
O    -7.227000000    -3.374000000    -0.215000000
H    -6.422000000    -2.875000000    -0.077000000
H    -6.927000000    -4.244000000    -0.480000000
O    -1.637000000    -8.218000000    -0.091000000
H    -1.060000000    -8.839000000    -0.536000000
H    -2.280000000    -7.970000000    -0.755000000
O    -5.972000000    -0.470000000     4.463000000
H    -5.791000000     0.429000000     4.188000000
H    -6.845000000    -0.656000000     4.117000000
O    -9.687000000    -1.555000000     1.941000000
H    -8.736000000    -1.633000000     2.012000000
H   -10.018000000    -2.419000000     2.187000000
O    -0.659000000    -3.155000000     4.463000000
H    -1.613000000    -3.219000000     4.494000000
H    -0.488000000    -2.405000000     3.894000000
O    -5.295000000    -4.557000000     2.343000000
H    -5.071000000    -3.906000000     1.678000000
H    -4.464000000    -4.986000000     2.547000000
