215
-1476.47542
C    -1.895000000     2.104000000     4.213000000
H    -2.357000000     2.548000000     3.335000000
C    -0.494000000     2.162000000     4.386000000
C     0.011000000     1.420000000     5.453000000
H     1.098000000     1.392000000     5.484000000
C     0.388000000     2.805000000     3.319000000
O    -0.131000000     4.070000000     2.817000000
H     0.370000000     2.169000000     2.422000000
O     1.709000000     3.062000000     3.763000000
C     2.704000000     2.625000000     2.915000000
C     3.236000000     1.347000000     3.022000000
H     2.770000000     0.739000000     3.793000000
C     4.051000000     0.780000000     2.034000000
O     4.407000000    -0.543000000     2.072000000
C     4.437000000     1.566000000     0.898000000
C     5.356000000     1.049000000    -0.184000000
H     5.887000000     1.867000000    -0.676000000
C     4.632000000     0.319000000    -1.299000000
C     4.217000000     0.991000000    -2.487000000
H     4.397000000     2.059000000    -2.576000000
H     6.052000000     0.413000000     0.368000000
C     3.974000000     2.919000000     0.839000000
H     4.377000000     3.512000000     0.023000000
C     3.102000000     3.444000000     1.844000000
C     2.464000000     4.817000000     1.579000000
H     3.197000000     5.422000000     1.042000000
H     2.291000000     5.446000000     2.455000000
C     1.144000000     4.762000000     0.807000000
C     1.145000000     4.868000000    -0.528000000
H     2.068000000     4.988000000    -1.090000000
C    -0.010000000     4.293000000     1.488000000
C    -1.137000000     3.929000000     0.758000000
H    -2.077000000     3.604000000     1.198000000
C    -1.167000000     4.174000000    -0.619000000
O    -2.357000000     3.968000000    -1.218000000
C    -2.522000000     2.766000000    -1.998000000
C    -3.961000000     2.218000000    -1.816000000
C    -4.522000000     1.300000000    -2.721000000
H    -4.087000000     1.241000000    -3.715000000
C    -4.649000000     2.321000000    -0.552000000
H    -4.129000000     2.888000000     0.216000000
O    -2.334000000     2.933000000    -3.411000000
H    -1.898000000     1.922000000    -1.666000000
C    -0.036000000     4.642000000    -1.285000000
C    -0.098000000     4.815000000    -2.805000000
H     0.599000000     5.510000000    -3.278000000
H    -1.098000000     5.117000000    -3.123000000
C     0.133000000     3.430000000    -3.532000000
C     1.395000000     2.957000000    -3.873000000
H     2.280000000     3.559000000    -3.685000000
C    -1.021000000     2.653000000    -3.846000000
C    -0.884000000     1.410000000    -4.434000000
H    -1.780000000     0.803000000    -4.537000000
C     0.396000000     0.880000000    -4.646000000
O     0.548000000    -0.446000000    -5.055000000
C     0.972000000    -1.349000000    -3.983000000
C     0.130000000    -2.592000000    -4.003000000
C    -1.159000000    -2.559000000    -4.457000000
H    -1.490000000    -1.580000000    -4.792000000
C     0.450000000    -3.752000000    -3.253000000
H     1.381000000    -3.740000000    -2.693000000
O     2.378000000    -1.719000000    -4.059000000
H     0.931000000    -0.932000000    -2.965000000
C     1.545000000     1.616000000    -4.369000000
C     2.972000000     1.095000000    -4.650000000
H     3.634000000     1.936000000    -4.867000000
H     2.947000000     0.366000000    -5.463000000
C     3.525000000     0.329000000    -3.493000000
C     3.236000000    -1.071000000    -3.277000000
C     3.728000000    -1.742000000    -2.143000000
H     3.570000000    -2.815000000    -2.071000000
C     4.382000000    -1.029000000    -1.127000000
O     4.657000000    -1.742000000     0.027000000
C     3.750000000    -1.500000000     1.156000000
H     2.818000000    -1.061000000     0.769000000
C     3.262000000    -2.726000000     1.979000000
C     3.190000000    -2.680000000     3.347000000
H     3.428000000    -1.798000000     3.937000000
C     2.807000000    -3.864000000     1.328000000
H     2.709000000    -3.883000000     0.246000000
C     2.525000000    -5.020000000     2.082000000
O     2.032000000    -6.150000000     1.527000000
C     2.453000000    -4.929000000     3.434000000
H     2.105000000    -5.777000000     4.019000000
C     2.784000000    -3.768000000     4.092000000
O     2.717000000    -3.755000000     5.469000000
C     2.517000000    -2.588000000     6.109000000
C     1.259000000    -2.127000000     6.308000000
H     0.475000000    -2.796000000     5.960000000
C     3.680000000    -1.860000000     6.495000000
H     4.627000000    -2.289000000     6.176000000
C     3.505000000    -0.643000000     7.112000000
H     4.294000000     0.005000000     7.486000000
C     2.216000000    -0.109000000     7.224000000
H     2.184000000     0.917000000     7.581000000
C     1.146000000    -0.883000000     6.870000000
O    -0.142000000    -0.392000000     7.053000000
C    -0.752000000     0.460000000     6.150000000
C    -2.130000000     0.480000000     6.049000000
H    -2.734000000    -0.080000000     6.759000000
C    -2.700000000     1.271000000     5.045000000
O    -4.044000000     1.359000000     4.927000000
C    -4.696000000     2.125000000     4.059000000
C    -5.356000000     1.470000000     2.959000000
H    -5.336000000     0.390000000     2.837000000
C    -4.835000000     3.502000000     4.316000000
H    -4.459000000     4.035000000     5.184000000
C    -5.582000000     4.215000000     3.343000000
H    -5.955000000     5.228000000     3.471000000
C    -6.152000000     3.643000000     2.192000000
H    -6.789000000     4.165000000     1.482000000
C    -5.987000000     2.268000000     2.019000000
O    -6.543000000     1.688000000     0.909000000
C    -5.870000000     1.655000000    -0.264000000
C    -6.442000000     0.901000000    -1.265000000
H    -7.479000000     0.620000000    -1.099000000
C    -5.805000000     0.759000000    -2.463000000
O    -6.353000000    -0.037000000    -3.486000000
C    -5.560000000    -0.653000000    -4.426000000
C    -4.878000000    -1.859000000    -4.104000000
H    -4.910000000    -2.274000000    -3.101000000
C    -5.393000000    -0.029000000    -5.684000000
H    -5.887000000     0.926000000    -5.846000000
C    -4.543000000    -0.589000000    -6.624000000
H    -4.273000000    -0.126000000    -7.569000000
C    -4.030000000    -1.849000000    -6.397000000
H    -3.503000000    -2.322000000    -7.222000000
C    -4.124000000    -2.437000000    -5.118000000
O    -3.374000000    -3.563000000    -4.864000000
C    -2.050000000    -3.623000000    -4.351000000
C    -1.700000000    -4.833000000    -3.824000000
H    -2.376000000    -5.681000000    -3.894000000
C    -0.424000000    -4.900000000    -3.247000000
O    -0.105000000    -6.110000000    -2.705000000
C     1.015000000    -6.302000000    -1.893000000
C     2.182000000    -6.754000000    -2.526000000
H     2.154000000    -7.011000000    -3.582000000
C     3.294000000    -7.121000000    -1.737000000
H     4.160000000    -7.629000000    -2.154000000
C     3.187000000    -6.919000000    -0.309000000
H     3.951000000    -7.155000000     0.427000000
C     1.992000000    -6.453000000     0.224000000
C     0.864000000    -6.195000000    -0.519000000
H    -0.009000000    -5.752000000    -0.046000000
C    -0.750000000    -2.318000000    -0.224000000
H    -0.688000000    -3.378000000    -0.458000000
C     0.303000000    -1.411000000    -0.531000000
H     1.187000000    -1.861000000    -0.976000000
C     0.161000000    -0.055000000    -0.287000000
H     1.009000000     0.672000000    -0.521000000
C    -1.019000000     0.440000000     0.288000000
H    -1.210000000     1.495000000     0.465000000
C    -2.033000000    -0.465000000     0.614000000
H    -2.950000000    -0.144000000     1.100000000
C    -1.900000000    -1.851000000     0.373000000
C    -2.913000000    -2.843000000     0.971000000
O    -3.749000000    -2.467000000     1.803000000
O    -2.796000000    -4.030000000     0.623000000
O    -2.640000000    -4.317000000     6.449000000
H    -1.853000000    -4.346000000     6.992000000
H    -2.311000000    -4.205000000     5.557000000
O    -1.863000000    -8.424000000     1.675000000
H    -1.493000000    -8.501000000     2.555000000
H    -2.099000000    -7.500000000     1.594000000
O    -3.602000000    -7.220000000     5.428000000
H    -3.722000000    -7.092000000     4.487000000
H    -4.286000000    -6.686000000     5.832000000
O    -2.485000000    -5.647000000     2.747000000
H    -3.366000000    -5.968000000     2.942000000
H    -2.550000000    -5.289000000     1.862000000
O    -5.304000000    -4.900000000     1.345000000
H    -4.547000000    -4.359000000     1.122000000
H    -5.856000000    -4.873000000     0.563000000
O     0.065000000    -1.480000000     3.255000000
H    -0.168000000    -1.104000000     2.406000000
H     0.515000000    -0.771000000     3.715000000
O    -3.329000000    -6.033000000    -1.210000000
H    -2.947000000    -5.317000000    -0.701000000
H    -4.167000000    -5.687000000    -1.518000000
O    -5.227000000    -5.125000000     6.177000000
H    -5.361000000    -4.782000000     5.293000000
H    -4.350000000    -4.829000000     6.419000000
O    -4.876000000    -2.202000000     7.045000000
H    -4.527000000    -2.138000000     6.156000000
H    -4.395000000    -2.930000000     7.440000000
O    -4.816000000    -6.835000000     3.205000000
H    -5.177000000    -7.688000000     2.961000000
H    -5.160000000    -6.232000000     2.546000000
O    -5.627000000    -3.611000000     3.828000000
H    -5.038000000    -2.857000000     3.860000000
H    -5.363000000    -4.088000000     3.042000000
O    -7.478000000    -4.598000000    -0.329000000
H    -8.117000000    -4.840000000    -1.000000000
H    -8.002000000    -4.443000000     0.456000000
O    -8.685000000    -1.231000000     0.689000000
H    -7.740000000    -1.238000000     0.840000000
H    -8.788000000    -1.566000000    -0.201000000
O    -6.128000000    -1.707000000     1.584000000
H    -5.181000000    -1.583000000     1.645000000
H    -6.250000000    -2.655000000     1.637000000
O    -2.305000000    -8.057000000    -2.437000000
H    -2.472000000    -8.008000000    -3.378000000
H    -2.652000000    -7.236000000    -2.089000000
O    -7.734000000    -0.137000000     3.895000000
H    -8.474000000    -0.728000000     4.036000000
H    -7.281000000    -0.498000000     3.133000000
O    -5.479000000    -5.030000000    -2.351000000
H    -6.333000000    -4.930000000    -1.930000000
H    -5.625000000    -4.755000000    -3.256000000
O    -1.253000000    -3.641000000     4.369000000
H    -0.709000000    -3.067000000     3.831000000
H    -1.415000000    -4.405000000     3.816000000
O    -3.618000000    -1.719000000     4.366000000
H    -3.437000000    -1.783000000     3.429000000
H    -2.759000000    -1.792000000     4.782000000
