215
-1442.13486
C    -2.120000000     2.892000000     3.444000000
H    -2.506000000     3.256000000     2.495000000
C    -0.722000000     2.979000000     3.597000000
C    -0.298000000     2.624000000     4.869000000
H     0.745000000     2.763000000     5.144000000
C     0.273000000     3.365000000     2.548000000
O    -0.184000000     4.494000000     1.800000000
H     0.464000000     2.521000000     1.869000000
O     1.575000000     3.753000000     3.102000000
C     2.657000000     3.097000000     2.475000000
C     3.081000000     1.859000000     2.928000000
H     2.705000000     1.413000000     3.846000000
C     3.933000000     1.085000000     2.118000000
O     4.157000000    -0.236000000     2.618000000
C     4.459000000     1.588000000     0.877000000
C     5.393000000     0.731000000     0.068000000
H     6.034000000     1.353000000    -0.560000000
C     4.739000000    -0.254000000    -0.934000000
C     4.328000000     0.093000000    -2.226000000
H     4.483000000     1.111000000    -2.574000000
H     6.134000000     0.246000000     0.706000000
C     4.090000000     2.906000000     0.545000000
H     4.483000000     3.360000000    -0.361000000
C     3.239000000     3.643000000     1.301000000
C     2.680000000     4.966000000     0.735000000
H     3.497000000     5.374000000     0.135000000
H     2.519000000     5.678000000     1.547000000
C     1.364000000     4.757000000    -0.099000000
C     1.461000000     4.731000000    -1.502000000
H     2.427000000     4.864000000    -1.982000000
C     0.067000000     4.554000000     0.440000000
C    -1.060000000     4.429000000    -0.342000000
H    -2.041000000     4.411000000     0.125000000
C    -0.906000000     4.393000000    -1.742000000
O    -2.046000000     4.019000000    -2.412000000
C    -2.199000000     2.632000000    -2.702000000
C    -3.604000000     2.055000000    -2.531000000
C    -4.070000000     0.906000000    -3.243000000
H    -3.507000000     0.488000000    -4.073000000
C    -4.407000000     2.597000000    -1.540000000
H    -4.137000000     3.540000000    -1.073000000
O    -1.774000000     2.373000000    -4.060000000
H    -1.645000000     2.141000000    -1.889000000
C     0.380000000     4.341000000    -2.331000000
C     0.622000000     4.010000000    -3.732000000
H     1.502000000     4.553000000    -4.084000000
H    -0.223000000     4.469000000    -4.250000000
C     0.668000000     2.506000000    -4.045000000
C     1.874000000     1.808000000    -4.058000000
H     2.792000000     2.388000000    -4.005000000
C    -0.521000000     1.813000000    -4.170000000
C    -0.475000000     0.432000000    -4.296000000
H    -1.392000000    -0.139000000    -4.412000000
C     0.703000000    -0.242000000    -4.308000000
O     0.667000000    -1.597000000    -4.451000000
C     0.926000000    -2.358000000    -3.259000000
C    -0.111000000    -3.419000000    -3.083000000
C    -1.203000000    -3.501000000    -3.969000000
H    -1.247000000    -2.842000000    -4.832000000
C     0.020000000    -4.280000000    -2.016000000
H     0.751000000    -4.029000000    -1.251000000
O     2.303000000    -2.902000000    -3.197000000
H     0.788000000    -1.572000000    -2.502000000
C     1.913000000     0.464000000    -4.300000000
C     3.238000000    -0.287000000    -4.386000000
H     4.044000000     0.358000000    -4.741000000
H     3.121000000    -1.038000000    -5.171000000
C     3.635000000    -0.819000000    -3.037000000
C     3.199000000    -2.052000000    -2.553000000
C     3.567000000    -2.377000000    -1.269000000
H     3.206000000    -3.319000000    -0.862000000
C     4.330000000    -1.517000000    -0.476000000
O     4.469000000    -1.837000000     0.864000000
C     3.514000000    -1.253000000     1.811000000
H     2.625000000    -0.833000000     1.318000000
C     3.060000000    -2.356000000     2.736000000
C     2.622000000    -1.984000000     4.002000000
H     2.449000000    -0.936000000     4.234000000
C     2.982000000    -3.628000000     2.351000000
H     3.398000000    -3.988000000     1.414000000
C     2.448000000    -4.630000000     3.238000000
O     2.355000000    -5.937000000     2.818000000
C     1.999000000    -4.246000000     4.522000000
H     1.562000000    -4.950000000     5.226000000
C     2.092000000    -2.911000000     4.841000000
O     1.529000000    -2.520000000     6.074000000
C     1.546000000    -1.277000000     6.621000000
C     0.466000000    -0.429000000     6.623000000
H    -0.485000000    -0.643000000     6.141000000
C     2.680000000    -0.868000000     7.243000000
H     3.472000000    -1.611000000     7.209000000
C     2.755000000     0.377000000     7.851000000
H     3.630000000     0.753000000     8.376000000
C     1.653000000     1.259000000     7.779000000
H     1.656000000     2.257000000     8.209000000
C     0.458000000     0.862000000     7.169000000
O    -0.627000000     1.648000000     7.037000000
C    -1.159000000     1.984000000     5.800000000
C    -2.509000000     1.806000000     5.572000000
H    -3.122000000     1.223000000     6.254000000
C    -3.013000000     2.266000000     4.357000000
O    -4.328000000     2.053000000     3.981000000
C    -4.971000000     2.827000000     3.076000000
C    -5.450000000     2.278000000     1.940000000
H    -5.502000000     1.192000000     1.914000000
C    -4.907000000     4.267000000     3.203000000
H    -4.704000000     4.684000000     4.185000000
C    -5.378000000     5.042000000     2.125000000
H    -5.409000000     6.127000000     2.180000000
C    -5.726000000     4.434000000     0.972000000
H    -6.037000000     5.048000000     0.130000000
C    -5.840000000     3.093000000     0.862000000
O    -6.417000000     2.490000000    -0.267000000
C    -5.632000000     1.978000000    -1.309000000
C    -6.169000000     0.904000000    -2.034000000
H    -7.189000000     0.585000000    -1.839000000
C    -5.346000000     0.322000000    -3.049000000
O    -5.839000000    -0.718000000    -3.765000000
C    -5.067000000    -1.488000000    -4.660000000
C    -4.666000000    -2.816000000    -4.306000000
H    -4.786000000    -3.215000000    -3.302000000
C    -4.718000000    -1.006000000    -5.923000000
H    -5.039000000     0.008000000    -6.144000000
C    -3.992000000    -1.810000000    -6.851000000
H    -3.609000000    -1.267000000    -7.711000000
C    -3.545000000    -3.097000000    -6.434000000
H    -2.794000000    -3.541000000    -7.082000000
C    -3.880000000    -3.618000000    -5.193000000
O    -3.151000000    -4.665000000    -4.649000000
C    -2.087000000    -4.535000000    -3.739000000
C    -1.774000000    -5.587000000    -2.884000000
H    -2.417000000    -6.463000000    -2.894000000
C    -0.766000000    -5.437000000    -1.935000000
O    -0.615000000    -6.427000000    -1.007000000
C     0.643000000    -6.580000000    -0.417000000
C     1.737000000    -6.934000000    -1.185000000
H     1.535000000    -7.103000000    -2.239000000
C     2.953000000    -7.189000000    -0.632000000
H     3.778000000    -7.530000000    -1.253000000
C     3.078000000    -6.781000000     0.729000000
H     4.032000000    -6.761000000     1.249000000
C     2.029000000    -6.399000000     1.537000000
C     0.750000000    -6.356000000     0.976000000
H    -0.113000000    -6.061000000     1.568000000
C    -1.769000000    -3.029000000     0.967000000
H    -1.957000000    -3.632000000     1.852000000
C    -0.813000000    -2.010000000     1.052000000
H    -0.290000000    -1.887000000     1.996000000
C    -0.803000000    -0.999000000     0.127000000
H    -0.140000000    -0.143000000     0.167000000
C    -1.736000000    -1.109000000    -0.928000000
H    -1.765000000    -0.315000000    -1.669000000
C    -2.568000000    -2.199000000    -1.096000000
H    -3.307000000    -2.220000000    -1.893000000
C    -2.614000000    -3.210000000    -0.173000000
C    -3.644000000    -4.343000000    -0.223000000
O    -4.436000000    -4.238000000    -1.100000000
O    -3.619000000    -5.209000000     0.641000000
O    -5.423000000    -2.764000000     2.666000000
H    -5.271000000    -2.271000000     1.859000000
H    -5.675000000    -3.638000000     2.368000000
O    -4.177000000    -7.783000000     0.776000000
H    -4.143000000    -6.885000000     0.446000000
H    -5.057000000    -8.087000000     0.552000000
O    -3.610000000    -4.329000000     4.656000000
H    -4.535000000    -4.510000000     4.490000000
H    -3.164000000    -4.614000000     3.858000000
O    -5.490000000    -6.316000000    -3.128000000
H    -4.867000000    -5.837000000    -2.582000000
H    -6.218000000    -6.517000000    -2.540000000
O    -4.629000000    -7.642000000    -5.267000000
H    -4.748000000    -7.201000000    -4.426000000
H    -5.102000000    -7.095000000    -5.894000000
O    -3.159000000   -10.196000000     0.035000000
H    -3.925000000   -10.342000000    -0.520000000
H    -3.227000000    -9.279000000     0.302000000
O    -4.112000000    -9.187000000     2.990000000
H    -4.162000000    -8.662000000     2.191000000
H    -4.578000000    -9.995000000     2.775000000
O    -5.217000000    -6.407000000     3.828000000
H    -5.401000000    -7.303000000     3.547000000
H    -4.797000000    -6.000000000     3.070000000
O    -2.211000000    -6.049000000     2.821000000
H    -2.750000000    -5.711000000     2.105000000
H    -1.904000000    -6.900000000     2.508000000
O    -7.366000000    -8.261000000    -2.039000000
H    -7.712000000    -8.858000000    -2.702000000
H    -6.657000000    -8.750000000    -1.622000000
O    -8.291000000    -5.058000000    -1.757000000
H    -8.798000000    -5.664000000    -1.216000000
H    -8.630000000    -5.186000000    -2.643000000
O    -6.786000000    -3.018000000    -1.528000000
H    -5.882000000    -3.281000000    -1.352000000
H    -7.283000000    -3.835000000    -1.499000000
O    -8.776000000    -3.856000000     1.197000000
H    -7.938000000    -4.319000000     1.203000000
H    -9.069000000    -3.903000000     0.286000000
O    -8.176000000    -2.928000000    -3.909000000
H    -7.849000000    -3.752000000    -4.269000000
H    -7.572000000    -2.721000000    -3.196000000
O    -7.778000000    -1.236000000     1.458000000
H    -8.263000000    -1.992000000     1.127000000
H    -7.017000000    -1.168000000     0.881000000
O    -7.054000000    -5.107000000    -5.123000000
H    -6.582000000    -5.327000000    -5.926000000
H    -6.589000000    -5.582000000    -4.434000000
O    -6.491000000    -5.303000000     1.133000000
H    -5.660000000    -5.094000000     0.706000000
H    -6.578000000    -6.251000000     1.036000000
O    -5.159000000    -1.314000000     0.154000000
H    -5.580000000    -1.339000000    -0.705000000
H    -4.276000000    -0.988000000    -0.021000000
O    -6.856000000    -8.146000000     0.522000000
H    -7.346000000    -8.748000000     1.082000000
H    -7.420000000    -8.014000000    -0.240000000
