215
-1440.89573
C    -2.689000000     2.483000000     3.330000000
H    -2.802000000     2.854000000     2.315000000
C    -1.377000000     2.545000000     3.919000000
C    -1.144000000     2.001000000     5.221000000
H    -0.173000000     2.011000000     5.708000000
C    -0.322000000     3.163000000     2.967000000
O    -0.877000000     4.320000000     2.225000000
H     0.023000000     2.302000000     2.375000000
O     0.855000000     3.520000000     3.686000000
C     2.058000000     3.127000000     3.183000000
C     2.534000000     1.868000000     3.549000000
H     1.991000000     1.327000000     4.319000000
C     3.582000000     1.277000000     2.920000000
O     3.744000000    -0.085000000     3.174000000
C     4.276000000     2.008000000     1.874000000
C     5.299000000     1.310000000     1.067000000
H     5.924000000     2.082000000     0.613000000
C     4.760000000     0.464000000    -0.082000000
C     4.686000000     0.974000000    -1.377000000
H     4.854000000     2.009000000    -1.663000000
H     5.888000000     0.644000000     1.700000000
C     3.851000000     3.301000000     1.531000000
H     4.252000000     3.790000000     0.647000000
C     2.681000000     3.816000000     2.114000000
C     1.963000000     5.075000000     1.568000000
H     2.744000000     5.630000000     1.043000000
H     1.636000000     5.841000000     2.274000000
C     0.842000000     4.795000000     0.511000000
C     1.092000000     4.829000000    -0.867000000
H     2.116000000     5.057000000    -1.151000000
C    -0.468000000     4.474000000     0.919000000
C    -1.436000000     4.182000000     0.013000000
H    -2.434000000     3.862000000     0.302000000
C    -1.112000000     4.193000000    -1.336000000
O    -2.153000000     3.695000000    -2.107000000
C    -2.045000000     2.387000000    -2.667000000
C    -3.426000000     1.723000000    -2.806000000
C    -3.667000000     0.726000000    -3.792000000
H    -2.825000000     0.450000000    -4.421000000
C    -4.380000000     2.061000000    -1.907000000
H    -4.194000000     2.750000000    -1.087000000
O    -1.374000000     2.405000000    -3.956000000
H    -1.514000000     1.677000000    -2.016000000
C     0.166000000     4.598000000    -1.810000000
C     0.568000000     4.456000000    -3.236000000
H     1.491000000     4.983000000    -3.487000000
H    -0.204000000     4.829000000    -3.912000000
C     1.024000000     3.078000000    -3.661000000
C     2.318000000     2.650000000    -3.528000000
H     3.105000000     3.274000000    -3.112000000
C    -0.041000000     2.178000000    -4.032000000
C     0.296000000     0.902000000    -4.444000000
H    -0.473000000     0.144000000    -4.566000000
C     1.611000000     0.490000000    -4.358000000
O     1.801000000    -0.848000000    -4.759000000
C     2.018000000    -1.675000000    -3.678000000
C     1.385000000    -3.051000000    -3.910000000
C     0.154000000    -3.079000000    -4.585000000
H    -0.198000000    -2.136000000    -4.996000000
C     1.731000000    -4.135000000    -3.127000000
H     2.521000000    -4.039000000    -2.387000000
O     3.385000000    -1.829000000    -3.377000000
H     1.527000000    -1.388000000    -2.737000000
C     2.641000000     1.317000000    -3.870000000
C     4.046000000     0.807000000    -3.777000000
H     4.777000000     1.611000000    -3.886000000
H     4.204000000     0.087000000    -4.583000000
C     4.243000000     0.185000000    -2.422000000
C     3.914000000    -1.147000000    -2.267000000
C     3.914000000    -1.651000000    -0.924000000
H     3.651000000    -2.680000000    -0.693000000
C     4.346000000    -0.898000000     0.103000000
O     4.319000000    -1.496000000     1.398000000
C     3.249000000    -1.020000000     2.226000000
H     2.587000000    -0.558000000     1.478000000
C     2.383000000    -2.025000000     2.842000000
C     1.913000000    -1.935000000     4.164000000
H     2.116000000    -1.037000000     4.744000000
C     2.114000000    -3.191000000     2.109000000
H     2.585000000    -3.319000000     1.138000000
C     1.542000000    -4.276000000     2.788000000
O     1.323000000    -5.527000000     2.183000000
C     1.072000000    -4.124000000     4.057000000
H     0.636000000    -5.014000000     4.502000000
C     1.271000000    -2.998000000     4.797000000
O     0.763000000    -2.945000000     6.071000000
C     0.633000000    -1.770000000     6.872000000
C    -0.430000000    -0.964000000     6.522000000
H    -1.058000000    -1.188000000     5.664000000
C     1.323000000    -1.574000000     8.089000000
H     2.117000000    -2.253000000     8.390000000
C     0.972000000    -0.537000000     8.937000000
H     1.605000000    -0.267000000     9.778000000
C    -0.120000000     0.261000000     8.586000000
H    -0.289000000     1.166000000     9.164000000
C    -0.877000000    -0.021000000     7.440000000
O    -1.997000000     0.783000000     7.076000000
C    -2.171000000     1.263000000     5.800000000
C    -3.450000000     1.217000000     5.221000000
H    -4.218000000     0.606000000     5.689000000
C    -3.752000000     1.860000000     4.047000000
O    -5.063000000     1.743000000     3.598000000
C    -5.577000000     2.391000000     2.464000000
C    -5.879000000     1.551000000     1.441000000
H    -5.720000000     0.477000000     1.391000000
C    -5.778000000     3.763000000     2.445000000
H    -5.565000000     4.258000000     3.389000000
C    -6.316000000     4.411000000     1.349000000
H    -6.483000000     5.485000000     1.335000000
C    -6.599000000     3.597000000     0.250000000
H    -7.023000000     3.932000000    -0.693000000
C    -6.299000000     2.180000000     0.266000000
O    -6.514000000     1.580000000    -0.946000000
C    -5.576000000     1.406000000    -1.894000000
C    -5.871000000     0.415000000    -2.812000000
H    -6.755000000    -0.204000000    -2.687000000
C    -4.913000000     0.083000000    -3.736000000
O    -5.152000000    -0.944000000    -4.629000000
C    -4.262000000    -1.548000000    -5.462000000
C    -3.405000000    -2.493000000    -5.011000000
H    -3.438000000    -2.618000000    -3.932000000
C    -4.356000000    -1.420000000    -6.870000000
H    -5.061000000    -0.704000000    -7.284000000
C    -3.451000000    -2.059000000    -7.700000000
H    -3.575000000    -1.989000000    -8.777000000
C    -2.587000000    -2.978000000    -7.127000000
H    -1.897000000    -3.577000000    -7.716000000
C    -2.528000000    -3.179000000    -5.814000000
O    -1.793000000    -4.321000000    -5.402000000
C    -0.585000000    -4.264000000    -4.710000000
C    -0.064000000    -5.381000000    -4.026000000
H    -0.549000000    -6.348000000    -4.124000000
C     0.981000000    -5.268000000    -3.166000000
O     1.435000000    -6.336000000    -2.507000000
C     2.105000000    -6.337000000    -1.325000000
C     3.263000000    -7.092000000    -1.216000000
H     3.649000000    -7.633000000    -2.076000000
C     3.848000000    -7.204000000     0.018000000
H     4.802000000    -7.725000000     0.028000000
C     3.375000000    -6.600000000     1.198000000
H     3.865000000    -6.728000000     2.159000000
C     2.063000000    -6.055000000     1.125000000
C     1.481000000    -5.901000000    -0.172000000
H     0.513000000    -5.408000000    -0.204000000
C    -0.717000000    -1.987000000     1.169000000
H    -0.797000000    -2.577000000     2.079000000
C    -0.080000000    -0.729000000     1.130000000
H     0.419000000    -0.406000000     2.040000000
C     0.112000000    -0.047000000    -0.027000000
H     0.704000000     0.875000000     0.097000000
C    -0.383000000    -0.565000000    -1.219000000
H    -0.104000000    -0.076000000    -2.148000000
C    -1.070000000    -1.774000000    -1.204000000
H    -1.271000000    -2.276000000    -2.147000000
C    -1.282000000    -2.480000000    -0.025000000
C    -1.954000000    -3.825000000    -0.013000000
O    -2.368000000    -4.360000000    -0.986000000
O    -2.239000000    -4.309000000     1.064000000
O    -4.354000000    -2.794000000     2.244000000
H    -3.730000000    -3.431000000     1.897000000
H    -4.504000000    -2.186000000     1.520000000
O    -5.560000000    -5.194000000    -4.366000000
H    -6.232000000    -5.868000000    -4.264000000
H    -4.748000000    -5.624000000    -4.097000000
O    -4.218000000    -2.042000000     4.747000000
H    -5.104000000    -2.370000000     4.901000000
H    -4.030000000    -2.279000000     3.838000000
O    -2.498000000    -9.438000000     0.971000000
H    -2.404000000    -8.554000000     1.326000000
H    -2.548000000   -10.002000000     1.743000000
O    -1.765000000    -6.090000000     5.188000000
H    -2.058000000    -6.916000000     4.803000000
H    -2.496000000    -5.488000000     5.048000000
O     0.303000000    -9.205000000    -0.477000000
H    -0.618000000    -9.442000000    -0.365000000
H     0.353000000    -8.294000000    -0.187000000
O     5.255000000    -4.476000000    -0.125000000
H     5.609000000    -4.946000000     0.630000000
H     4.372000000    -4.829000000    -0.235000000
O    -2.019000000    -6.949000000     1.868000000
H    -2.862000000    -7.048000000     2.311000000
H    -2.024000000    -6.049000000     1.540000000
O    -6.638000000    -8.262000000     2.604000000
H    -6.102000000    -7.474000000     2.698000000
H    -6.774000000    -8.348000000     1.660000000
O    -0.106000000    -9.018000000    -3.384000000
H     0.727000000    -9.286000000    -3.772000000
H     0.113000000    -8.790000000    -2.481000000
O    -5.531000000    -5.586000000     2.404000000
H    -5.255000000    -4.678000000     2.531000000
H    -5.133000000    -5.843000000     1.572000000
O    -4.640000000    -3.472000000    -1.945000000
H    -5.098000000    -4.098000000    -2.506000000
H    -3.878000000    -3.953000000    -1.622000000
O    -3.977000000   -10.016000000    -1.545000000
H    -3.216000000    -9.441000000    -1.459000000
H    -4.063000000   -10.430000000    -0.686000000
O    -3.586000000    -6.018000000    -2.415000000
H    -3.091000000    -6.480000000    -3.091000000
H    -2.931000000    -5.494000000    -1.954000000
O    -6.318000000    -5.861000000     5.038000000
H    -6.965000000    -5.192000000     5.262000000
H    -6.125000000    -5.707000000     4.113000000
O    -4.091000000    -6.261000000     0.212000000
H    -3.393000000    -5.631000000     0.388000000
H    -4.042000000    -6.415000000    -0.732000000
O     0.325000000    -7.915000000     4.023000000
H     0.448000000    -7.048000000     3.638000000
H    -0.624000000    -8.030000000     4.058000000
O    -4.146000000    -1.183000000    -0.510000000
H    -4.538000000    -1.842000000    -1.082000000
H    -3.291000000    -1.005000000    -0.900000000
O    -6.986000000    -2.305000000     0.599000000
H    -6.295000000    -2.151000000    -0.045000000
H    -7.632000000    -2.837000000     0.135000000
