215
-1442.27791
C    -2.807000000     4.356000000     2.594000000
H    -2.847000000     4.957000000     1.689000000
C    -1.622000000     3.795000000     3.074000000
C    -1.671000000     2.951000000     4.165000000
H    -0.866000000     2.354000000     4.587000000
C    -0.331000000     3.735000000     2.236000000
O    -0.342000000     4.816000000     1.284000000
H    -0.396000000     2.735000000     1.782000000
O     0.836000000     3.893000000     3.091000000
C     2.046000000     3.304000000     2.717000000
C     2.328000000     2.149000000     3.406000000
H     1.719000000     1.828000000     4.247000000
C     3.299000000     1.305000000     2.956000000
O     3.443000000     0.113000000     3.576000000
C     4.107000000     1.688000000     1.886000000
C     5.276000000     0.819000000     1.329000000
H     6.032000000     1.423000000     0.823000000
C     4.798000000    -0.166000000     0.372000000
C     4.811000000     0.121000000    -0.984000000
H     5.280000000     1.037000000    -1.334000000
H     5.781000000     0.336000000     2.168000000
C     3.921000000     2.940000000     1.276000000
H     4.623000000     3.267000000     0.514000000
C     2.789000000     3.712000000     1.599000000
C     2.478000000     5.030000000     0.847000000
H     3.368000000     5.352000000     0.303000000
H     2.084000000     5.855000000     1.444000000
C     1.461000000     4.748000000    -0.282000000
C     1.846000000     4.388000000    -1.605000000
H     2.908000000     4.323000000    -1.825000000
C     0.126000000     4.676000000     0.009000000
C    -0.807000000     4.296000000    -0.949000000
H    -1.841000000     4.139000000    -0.653000000
C    -0.410000000     4.028000000    -2.245000000
O    -1.325000000     3.552000000    -3.107000000
C    -1.336000000     2.078000000    -3.234000000
C    -2.777000000     1.644000000    -3.155000000
C    -3.119000000     0.358000000    -3.579000000
H    -2.363000000    -0.241000000    -4.082000000
C    -3.696000000     2.401000000    -2.398000000
H    -3.376000000     3.378000000    -2.046000000
O    -0.726000000     1.758000000    -4.499000000
H    -0.792000000     1.574000000    -2.421000000
C     0.926000000     4.095000000    -2.644000000
C     1.478000000     3.701000000    -3.935000000
H     2.392000000     4.282000000    -4.070000000
H     0.758000000     4.091000000    -4.658000000
C     1.680000000     2.201000000    -4.183000000
C     2.891000000     1.555000000    -3.892000000
H     3.821000000     2.117000000    -3.920000000
C     0.611000000     1.359000000    -4.469000000
C     0.659000000    -0.030000000    -4.476000000
H    -0.259000000    -0.577000000    -4.677000000
C     1.812000000    -0.557000000    -4.059000000
O     1.846000000    -1.898000000    -3.951000000
C     1.803000000    -2.519000000    -2.662000000
C     0.942000000    -3.782000000    -2.553000000
C    -0.217000000    -3.894000000    -3.355000000
H    -0.432000000    -3.115000000    -4.082000000
C     1.345000000    -4.795000000    -1.724000000
H     2.188000000    -4.807000000    -1.037000000
O     3.179000000    -2.851000000    -2.316000000
H     1.473000000    -1.698000000    -2.008000000
C     2.952000000     0.148000000    -3.807000000
C     4.271000000    -0.509000000    -3.420000000
H     5.078000000     0.222000000    -3.506000000
H     4.432000000    -1.416000000    -4.006000000
C     4.294000000    -0.823000000    -1.921000000
C     3.750000000    -2.003000000    -1.469000000
C     3.715000000    -2.295000000    -0.135000000
H     3.174000000    -3.196000000     0.143000000
C     4.217000000    -1.355000000     0.782000000
O     4.094000000    -1.648000000     2.106000000
C     3.018000000    -1.083000000     2.816000000
H     2.390000000    -0.518000000     2.113000000
C     2.241000000    -2.117000000     3.610000000
C     1.039000000    -1.760000000     4.186000000
H     0.810000000    -0.697000000     4.159000000
C     2.623000000    -3.468000000     3.495000000
H     3.485000000    -3.861000000     2.962000000
C     1.835000000    -4.455000000     3.973000000
O     2.057000000    -5.771000000     3.725000000
C     0.527000000    -4.110000000     4.410000000
H    -0.180000000    -4.934000000     4.464000000
C     0.126000000    -2.759000000     4.572000000
O    -1.106000000    -2.363000000     5.041000000
C    -1.230000000    -1.251000000     5.813000000
C    -2.088000000    -0.190000000     5.441000000
H    -2.622000000    -0.252000000     4.497000000
C    -0.485000000    -1.095000000     6.980000000
H     0.096000000    -1.958000000     7.296000000
C    -0.479000000     0.084000000     7.685000000
H     0.170000000     0.076000000     8.558000000
C    -1.368000000     1.056000000     7.406000000
H    -1.517000000     1.866000000     8.116000000
C    -2.153000000     0.931000000     6.276000000
O    -2.959000000     1.973000000     6.008000000
C    -2.839000000     2.769000000     4.907000000
C    -4.041000000     3.357000000     4.391000000
H    -5.001000000     3.148000000     4.857000000
C    -4.025000000     4.145000000     3.219000000
O    -5.145000000     4.699000000     2.672000000
C    -5.345000000     4.834000000     1.350000000
C    -5.606000000     3.661000000     0.644000000
H    -5.589000000     2.729000000     1.203000000
C    -5.176000000     6.055000000     0.717000000
H    -4.894000000     6.958000000     1.251000000
C    -5.390000000     6.062000000    -0.706000000
H    -5.294000000     7.058000000    -1.130000000
C    -5.721000000     4.912000000    -1.414000000
H    -5.930000000     4.920000000    -2.481000000
C    -5.664000000     3.672000000    -0.749000000
O    -5.950000000     2.585000000    -1.508000000
C    -4.983000000     1.872000000    -2.133000000
C    -5.397000000     0.676000000    -2.727000000
H    -6.400000000     0.330000000    -2.488000000
C    -4.438000000    -0.071000000    -3.378000000
O    -4.849000000    -1.355000000    -3.698000000
C    -4.128000000    -2.180000000    -4.458000000
C    -3.429000000    -3.212000000    -3.867000000
H    -3.532000000    -3.465000000    -2.815000000
C    -3.987000000    -1.937000000    -5.836000000
H    -4.634000000    -1.248000000    -6.371000000
C    -3.197000000    -2.814000000    -6.628000000
H    -3.061000000    -2.625000000    -7.690000000
C    -2.564000000    -3.910000000    -6.089000000
H    -1.967000000    -4.522000000    -6.760000000
C    -2.763000000    -4.114000000    -4.710000000
O    -2.040000000    -5.197000000    -4.217000000
C    -0.909000000    -5.106000000    -3.376000000
C    -0.621000000    -6.137000000    -2.454000000
H    -1.067000000    -7.123000000    -2.559000000
C     0.536000000    -5.960000000    -1.633000000
O     0.824000000    -7.041000000    -0.738000000
C     1.797000000    -6.911000000     0.170000000
C     3.009000000    -7.501000000    -0.009000000
H     3.112000000    -8.089000000    -0.917000000
C     3.887000000    -7.608000000     1.056000000
H     4.762000000    -8.253000000     1.047000000
C     3.641000000    -6.967000000     2.289000000
H     4.397000000    -7.051000000     3.065000000
C     2.456000000    -6.258000000     2.471000000
C     1.535000000    -6.216000000     1.376000000
H     0.559000000    -5.772000000     1.553000000
C    -1.248000000    -1.441000000     1.476000000
H    -1.594000000    -1.802000000     2.441000000
C    -0.403000000    -0.381000000     1.243000000
H     0.011000000     0.175000000     2.080000000
C    -0.126000000    -0.027000000    -0.074000000
H     0.659000000     0.695000000    -0.319000000
C    -0.630000000    -0.710000000    -1.190000000
H    -0.314000000    -0.418000000    -2.188000000
C    -1.553000000    -1.711000000    -0.895000000
H    -2.050000000    -2.178000000    -1.741000000
C    -1.931000000    -2.097000000     0.412000000
C    -2.984000000    -3.101000000     0.721000000
O    -3.663000000    -3.493000000    -0.225000000
O    -3.193000000    -3.436000000     1.865000000
O    -3.155000000    -4.911000000     4.116000000
H    -2.752000000    -4.302000000     3.497000000
H    -2.955000000    -5.778000000     3.764000000
O    -5.897000000    -5.172000000     4.358000000
H    -4.941000000    -5.131000000     4.347000000
H    -6.177000000    -4.406000000     3.857000000
O    -4.776000000    -2.682000000     5.492000000
H    -4.643000000    -3.182000000     4.687000000
H    -4.998000000    -1.801000000     5.193000000
O    -5.588000000    -0.277000000     4.457000000
H    -5.059000000    -0.507000000     3.692000000
H    -5.829000000     0.638000000     4.315000000
O    -7.936000000    -5.721000000     1.656000000
H    -8.600000000    -5.301000000     1.109000000
H    -7.209000000    -5.099000000     1.670000000
O    -4.101000000    -6.287000000    -0.163000000
H    -3.724000000    -5.410000000    -0.238000000
H    -4.824000000    -6.291000000    -0.790000000
O     0.146000000    -8.331000000     3.254000000
H    -0.258000000    -7.509000000     2.975000000
H    -0.593000000    -8.898000000     3.477000000
O    -3.297000000    -8.432000000    -1.705000000
H    -3.757000000    -8.017000000    -2.435000000
H    -3.423000000    -7.832000000    -0.970000000
O    -8.823000000    -2.200000000     2.632000000
H    -7.882000000    -2.208000000     2.456000000
H    -8.891000000    -1.972000000     3.559000000
O    -7.704000000    -1.488000000    -0.440000000
H    -7.258000000    -2.227000000    -0.854000000
H    -8.371000000    -1.225000000    -1.075000000
O    -2.556000000    -4.068000000     6.814000000
H    -1.666000000    -4.007000000     6.466000000
H    -3.120000000    -3.916000000     6.056000000
O    -4.217000000    -0.761000000     2.197000000
H    -3.964000000    -1.674000000     2.057000000
H    -3.748000000    -0.276000000     1.517000000
O    -5.183000000    -8.348000000     1.406000000
H    -6.093000000    -8.589000000     1.579000000
H    -5.242000000    -7.605000000     0.805000000
O    -6.080000000    -3.443000000    -1.339000000
H    -5.167000000    -3.261000000    -1.114000000
H    -6.078000000    -4.353000000    -1.636000000
O    -7.229000000    -3.021000000    -3.959000000
H    -6.768000000    -2.198000000    -4.121000000
H    -6.668000000    -3.492000000    -3.342000000
O    -6.035000000    -5.886000000    -2.229000000
H    -6.977000000    -6.052000000    -2.281000000
H    -5.650000000    -6.498000000    -2.857000000
O    -2.898000000    -7.250000000     3.124000000
H    -3.490000000    -7.379000000     2.383000000
H    -3.088000000    -7.980000000     3.713000000
O    -6.204000000    -3.549000000     1.862000000
H    -5.265000000    -3.722000000     1.937000000
H    -6.350000000    -3.426000000     0.924000000
O    -8.445000000     0.699000000     1.265000000
H    -7.978000000    -0.038000000     0.870000000
H    -8.661000000     1.269000000     0.528000000
