215
-1459.67887
C    -2.660000000     1.966000000     3.045000000
H    -2.768000000     2.706000000     2.257000000
C    -1.396000000     1.681000000     3.565000000
C    -1.245000000     0.846000000     4.647000000
H    -0.274000000     0.820000000     5.136000000
C    -0.171000000     2.360000000     2.917000000
O    -0.360000000     3.770000000     2.504000000
H     0.206000000     1.792000000     2.054000000
O     0.906000000     2.404000000     3.961000000
C     2.177000000     2.049000000     3.536000000
C     2.544000000     0.753000000     3.895000000
H     1.917000000     0.081000000     4.475000000
C     3.698000000     0.238000000     3.272000000
O     4.019000000    -1.077000000     3.460000000
C     4.393000000     0.986000000     2.320000000
C     5.459000000     0.344000000     1.487000000
H     6.207000000     1.065000000     1.150000000
C     4.841000000    -0.280000000     0.206000000
C     4.914000000     0.358000000    -1.014000000
H     5.401000000     1.329000000    -1.049000000
H     6.058000000    -0.408000000     2.004000000
C     4.061000000     2.305000000     2.033000000
H     4.666000000     2.884000000     1.340000000
C     2.936000000     2.818000000     2.627000000
C     2.423000000     4.231000000     2.261000000
H     3.324000000     4.820000000     2.078000000
H     2.022000000     4.714000000     3.154000000
C     1.511000000     4.362000000     1.019000000
C     1.956000000     4.543000000    -0.255000000
H     3.021000000     4.472000000    -0.460000000
C     0.161000000     4.183000000     1.281000000
C    -0.636000000     4.224000000     0.188000000
H    -1.706000000     4.229000000     0.378000000
C    -0.234000000     4.457000000    -1.105000000
O    -1.154000000     4.498000000    -2.139000000
C    -1.388000000     3.295000000    -2.795000000
C    -2.892000000     3.109000000    -3.153000000
C    -3.208000000     2.408000000    -4.341000000
H    -2.518000000     2.217000000    -5.159000000
C    -3.884000000     3.276000000    -2.201000000
H    -3.606000000     3.760000000    -1.268000000
O    -0.559000000     3.290000000    -4.027000000
H    -1.078000000     2.501000000    -2.100000000
C     1.124000000     4.615000000    -1.350000000
C     1.618000000     4.693000000    -2.813000000
H     2.564000000     5.237000000    -2.866000000
H     0.929000000     5.223000000    -3.474000000
C     1.755000000     3.300000000    -3.481000000
C     2.956000000     2.560000000    -3.289000000
H     3.748000000     3.099000000    -2.776000000
C     0.644000000     2.702000000    -4.067000000
C     0.692000000     1.366000000    -4.442000000
H    -0.128000000     0.783000000    -4.853000000
C     1.907000000     0.707000000    -4.289000000
O     1.921000000    -0.647000000    -4.520000000
C     1.658000000    -1.547000000    -3.360000000
C     0.540000000    -2.609000000    -3.570000000
C    -0.555000000    -2.311000000    -4.431000000
H    -0.546000000    -1.438000000    -5.078000000
C     0.567000000    -3.737000000    -2.770000000
H     1.523000000    -4.000000000    -2.325000000
O     2.981000000    -2.104000000    -3.021000000
H     1.312000000    -0.971000000    -2.489000000
C     3.059000000     1.239000000    -3.763000000
C     4.332000000     0.432000000    -3.509000000
H     5.180000000     1.120000000    -3.517000000
H     4.439000000    -0.328000000    -4.286000000
C     4.359000000    -0.263000000    -2.172000000
C     3.759000000    -1.559000000    -2.028000000
C     3.609000000    -2.081000000    -0.728000000
H     3.123000000    -3.045000000    -0.599000000
C     4.248000000    -1.535000000     0.355000000
O     4.342000000    -2.329000000     1.503000000
C     3.368000000    -1.964000000     2.491000000
H     2.460000000    -1.535000000     2.042000000
C     2.815000000    -3.157000000     3.225000000
C     2.202000000    -3.037000000     4.479000000
H     2.392000000    -2.195000000     5.139000000
C     2.407000000    -4.334000000     2.488000000
H     2.785000000    -4.423000000     1.473000000
C     1.607000000    -5.304000000     2.996000000
O     1.326000000    -6.445000000     2.323000000
C     1.091000000    -5.048000000     4.249000000
H     0.453000000    -5.837000000     4.639000000
C     1.412000000    -3.970000000     5.048000000
O     0.973000000    -3.890000000     6.375000000
C     0.470000000    -2.711000000     6.940000000
C    -0.652000000    -2.125000000     6.349000000
H    -1.029000000    -2.444000000     5.381000000
C     0.939000000    -2.334000000     8.211000000
H     1.768000000    -2.862000000     8.674000000
C     0.243000000    -1.327000000     8.857000000
H     0.509000000    -1.193000000     9.903000000
C    -0.830000000    -0.656000000     8.252000000
H    -1.363000000     0.110000000     8.809000000
C    -1.224000000    -1.030000000     6.911000000
O    -2.405000000    -0.478000000     6.367000000
C    -2.418000000     0.252000000     5.186000000
C    -3.665000000     0.549000000     4.620000000
H    -4.615000000     0.210000000     5.026000000
C    -3.823000000     1.511000000     3.621000000
O    -5.091000000     1.904000000     3.220000000
C    -5.313000000     2.849000000     2.223000000
C    -5.597000000     2.389000000     0.913000000
H    -5.642000000     1.331000000     0.670000000
C    -5.297000000     4.264000000     2.476000000
H    -5.294000000     4.512000000     3.535000000
C    -5.562000000     5.196000000     1.466000000
H    -5.797000000     6.240000000     1.656000000
C    -5.860000000     4.753000000     0.168000000
H    -6.223000000     5.452000000    -0.580000000
C    -5.830000000     3.376000000    -0.130000000
O    -6.133000000     2.878000000    -1.385000000
C    -5.185000000     2.775000000    -2.415000000
C    -5.492000000     2.115000000    -3.655000000
H    -6.466000000     1.653000000    -3.790000000
C    -4.512000000     1.969000000    -4.631000000
O    -4.865000000     1.204000000    -5.745000000
C    -4.167000000     0.092000000    -6.262000000
C    -3.795000000    -0.969000000    -5.479000000
H    -4.002000000    -0.942000000    -4.412000000
C    -3.816000000     0.176000000    -7.603000000
H    -4.029000000     1.099000000    -8.136000000
C    -3.248000000    -0.908000000    -8.229000000
H    -3.054000000    -0.990000000    -9.295000000
C    -2.823000000    -1.933000000    -7.401000000
H    -2.167000000    -2.687000000    -7.829000000
C    -3.056000000    -1.979000000    -6.071000000
O    -2.700000000    -2.986000000    -5.222000000
C    -1.615000000    -3.148000000    -4.446000000
C    -1.675000000    -4.288000000    -3.565000000
H    -2.512000000    -4.982000000    -3.554000000
C    -0.575000000    -4.539000000    -2.761000000
O    -0.709000000    -5.625000000    -1.875000000
C     0.324000000    -6.040000000    -1.139000000
C     1.463000000    -6.653000000    -1.797000000
H     1.419000000    -6.762000000    -2.877000000
C     2.519000000    -7.045000000    -1.083000000
H     3.464000000    -7.349000000    -1.527000000
C     2.453000000    -6.960000000     0.318000000
H     3.260000000    -7.224000000     0.997000000
C     1.329000000    -6.479000000     0.994000000
C     0.343000000    -5.825000000     0.289000000
H    -0.401000000    -5.194000000     0.768000000
C    -1.659000000    -1.685000000     0.928000000
H    -1.725000000    -2.332000000     1.799000000
C    -0.549000000    -0.872000000     0.794000000
H     0.180000000    -0.814000000     1.599000000
C    -0.326000000    -0.059000000    -0.374000000
H     0.522000000     0.618000000    -0.589000000
C    -1.304000000    -0.167000000    -1.380000000
H    -1.329000000     0.439000000    -2.282000000
C    -2.461000000    -0.945000000    -1.219000000
H    -3.201000000    -0.986000000    -2.014000000
C    -2.658000000    -1.768000000    -0.083000000
C    -3.876000000    -2.678000000     0.059000000
O    -4.928000000    -2.392000000    -0.507000000
O    -3.810000000    -3.762000000     0.585000000
O    -5.343000000    -2.332000000     3.733000000
H    -5.727000000    -2.037000000     2.907000000
H    -4.905000000    -1.556000000     4.083000000
O    -7.986000000    -5.952000000    -3.532000000
H    -7.849000000    -5.666000000    -2.630000000
H    -8.899000000    -6.240000000    -3.556000000
O    -6.702000000    -4.472000000    -0.660000000
H    -6.120000000    -3.714000000    -0.714000000
H    -6.491000000    -4.877000000     0.181000000
O    -8.992000000    -1.715000000    -2.757000000
H    -8.783000000    -2.243000000    -1.986000000
H    -8.388000000    -2.025000000    -3.431000000
O    -2.983000000    -5.116000000     6.183000000
H    -3.722000000    -4.701000000     5.737000000
H    -2.696000000    -5.803000000     5.582000000
O    -6.607000000    -7.476000000     3.568000000
H    -6.587000000    -8.260000000     3.019000000
H    -5.947000000    -6.898000000     3.183000000
O    -4.112000000    -6.186000000    -1.025000000
H    -3.820000000    -5.334000000    -0.700000000
H    -4.945000000    -6.003000000    -1.460000000
O    -1.988000000    -7.974000000    -0.333000000
H    -2.776000000    -7.653000000    -0.771000000
H    -1.295000000    -7.379000000    -0.620000000
O    -6.403000000    -1.496000000     1.404000000
H    -5.883000000    -1.871000000     0.693000000
H    -7.153000000    -1.095000000     0.966000000
O    -5.506000000    -4.654000000     4.846000000
H    -5.576000000    -3.743000000     4.561000000
H    -6.074000000    -4.709000000     5.615000000
O    -7.743000000     0.817000000     3.551000000
H    -7.079000000     1.498000000     3.655000000
H    -7.984000000     0.856000000     2.625000000
O    -2.803000000    -6.045000000     1.808000000
H    -3.216000000    -5.320000000     1.339000000
H    -2.786000000    -6.761000000     1.173000000
O    -9.021000000    -3.092000000    -0.133000000
H    -9.847000000    -3.360000000     0.271000000
H    -8.462000000    -3.867000000    -0.073000000
O    -8.616000000    -3.586000000     3.139000000
H    -7.887000000    -3.258000000     2.613000000
H    -8.589000000    -3.061000000     3.939000000
O    -5.715000000    -2.118000000    -2.927000000
H    -5.530000000    -2.003000000    -1.995000000
H    -5.322000000    -2.963000000    -3.147000000
O    -7.150000000    -2.761000000    -5.038000000
H    -6.652000000    -3.406000000    -4.534000000
H    -6.575000000    -1.997000000    -5.082000000
O    -5.487000000    -4.583000000    -3.981000000
H    -4.975000000    -4.790000000    -4.763000000
H    -5.740000000    -5.436000000    -3.627000000
O    -2.055000000    -6.920000000     4.151000000
H    -2.590000000    -7.702000000     4.019000000
H    -2.193000000    -6.399000000     3.359000000
O    -5.696000000    -5.155000000     1.965000000
H    -4.957000000    -4.751000000     1.511000000
H    -5.479000000    -5.075000000     2.894000000
