215
-1461.59587
C    -2.303000000     2.404000000     3.265000000
H    -2.427000000     3.175000000     2.509000000
C    -1.045000000     1.943000000     3.736000000
C    -1.046000000     0.996000000     4.755000000
H    -0.133000000     0.619000000     5.209000000
C     0.225000000     2.451000000     3.176000000
O     0.135000000     3.864000000     2.843000000
H     0.337000000     1.858000000     2.256000000
O     1.389000000     2.285000000     4.093000000
C     2.496000000     1.763000000     3.505000000
C     2.857000000     0.414000000     3.841000000
H     2.190000000    -0.147000000     4.491000000
C     3.853000000    -0.247000000     3.130000000
O     3.924000000    -1.635000000     3.204000000
C     4.543000000     0.444000000     2.138000000
C     5.518000000    -0.193000000     1.136000000
H     6.249000000     0.505000000     0.724000000
C     4.749000000    -0.782000000    -0.050000000
C     4.745000000    -0.087000000    -1.259000000
H     5.267000000     0.857000000    -1.391000000
H     6.097000000    -0.923000000     1.705000000
C     4.293000000     1.817000000     1.944000000
H     4.913000000     2.330000000     1.214000000
C     3.281000000     2.509000000     2.627000000
C     3.051000000     3.987000000     2.328000000
H     3.975000000     4.430000000     1.951000000
H     2.773000000     4.558000000     3.216000000
C     1.981000000     4.225000000     1.320000000
C     2.333000000     4.422000000    -0.029000000
H     3.386000000     4.315000000    -0.278000000
C     0.601000000     4.206000000     1.621000000
C    -0.376000000     4.470000000     0.572000000
H    -1.430000000     4.466000000     0.836000000
C     0.048000000     4.661000000    -0.722000000
O    -0.976000000     4.672000000    -1.702000000
C    -1.211000000     3.460000000    -2.426000000
C    -2.698000000     3.213000000    -2.475000000
C    -3.148000000     2.426000000    -3.541000000
H    -2.398000000     2.037000000    -4.225000000
C    -3.634000000     3.737000000    -1.573000000
H    -3.419000000     4.429000000    -0.763000000
O    -0.551000000     3.464000000    -3.716000000
H    -0.788000000     2.707000000    -1.745000000
C     1.410000000     4.509000000    -1.057000000
C     1.889000000     4.724000000    -2.510000000
H     2.854000000     5.235000000    -2.525000000
H     1.281000000     5.413000000    -3.100000000
C     1.823000000     3.358000000    -3.213000000
C     2.968000000     2.518000000    -3.227000000
H     3.855000000     2.825000000    -2.678000000
C     0.630000000     2.834000000    -3.770000000
C     0.594000000     1.532000000    -4.229000000
H    -0.313000000     1.061000000    -4.597000000
C     1.666000000     0.690000000    -4.154000000
O     1.442000000    -0.650000000    -4.460000000
C     1.268000000    -1.561000000    -3.412000000
C     0.183000000    -2.578000000    -3.748000000
C    -0.804000000    -2.340000000    -4.675000000
H    -0.718000000    -1.454000000    -5.298000000
C     0.036000000    -3.702000000    -2.996000000
H     0.742000000    -3.897000000    -2.193000000
O     2.574000000    -2.240000000    -3.250000000
H     1.020000000    -1.071000000    -2.459000000
C     2.900000000     1.201000000    -3.736000000
C     4.134000000     0.207000000    -3.678000000
H     5.089000000     0.736000000    -3.703000000
H     4.168000000    -0.510000000    -4.501000000
C     4.090000000    -0.611000000    -2.376000000
C     3.416000000    -1.789000000    -2.266000000
C     3.473000000    -2.522000000    -1.129000000
H     3.200000000    -3.573000000    -1.168000000
C     4.102000000    -1.985000000     0.012000000
O     4.053000000    -2.850000000     1.132000000
C     3.216000000    -2.395000000     2.186000000
H     2.544000000    -1.677000000     1.692000000
C     2.339000000    -3.533000000     2.715000000
C     1.896000000    -3.443000000     4.006000000
H     2.218000000    -2.609000000     4.626000000
C     1.918000000    -4.597000000     1.927000000
H     2.271000000    -4.776000000     0.915000000
C     1.239000000    -5.649000000     2.535000000
O     0.866000000    -6.777000000     1.830000000
C     0.784000000    -5.490000000     3.816000000
H     0.250000000    -6.282000000     4.335000000
C     1.040000000    -4.323000000     4.556000000
O     0.631000000    -4.256000000     5.914000000
C     0.250000000    -3.105000000     6.465000000
C    -0.807000000    -2.338000000     6.015000000
H    -1.277000000    -2.545000000     5.057000000
C     0.889000000    -2.768000000     7.657000000
H     1.775000000    -3.340000000     7.924000000
C     0.558000000    -1.567000000     8.298000000
H     1.008000000    -1.261000000     9.239000000
C    -0.457000000    -0.798000000     7.777000000
H    -0.656000000     0.163000000     8.244000000
C    -1.140000000    -1.112000000     6.673000000
O    -2.303000000    -0.441000000     6.305000000
C    -2.263000000     0.511000000     5.255000000
C    -3.535000000     0.881000000     4.744000000
H    -4.385000000     0.265000000     5.027000000
C    -3.518000000     1.871000000     3.772000000
O    -4.744000000     2.513000000     3.399000000
C    -5.033000000     3.512000000     2.516000000
C    -5.524000000     3.171000000     1.296000000
H    -5.646000000     2.128000000     1.015000000
C    -4.809000000     4.811000000     2.915000000
H    -4.496000000     5.115000000     3.911000000
C    -4.930000000     5.873000000     2.024000000
H    -4.659000000     6.910000000     2.204000000
C    -5.417000000     5.557000000     0.763000000
H    -5.459000000     6.332000000     0.002000000
C    -5.713000000     4.245000000     0.421000000
O    -5.983000000     3.981000000    -0.921000000
C    -4.997000000     3.454000000    -1.812000000
C    -5.483000000     2.695000000    -2.879000000
H    -6.554000000     2.598000000    -3.038000000
C    -4.547000000     2.163000000    -3.752000000
O    -5.020000000     1.309000000    -4.795000000
C    -4.192000000     0.524000000    -5.657000000
C    -3.955000000    -0.803000000    -5.263000000
H    -4.245000000    -1.170000000    -4.282000000
C    -3.819000000     1.027000000    -6.838000000
H    -4.074000000     2.050000000    -7.102000000
C    -3.151000000     0.145000000    -7.713000000
H    -2.908000000     0.662000000    -8.638000000
C    -2.813000000    -1.197000000    -7.360000000
H    -2.257000000    -1.794000000    -8.079000000
C    -3.236000000    -1.678000000    -6.108000000
O    -3.016000000    -2.917000000    -5.678000000
C    -1.939000000    -3.186000000    -4.811000000
C    -2.052000000    -4.340000000    -4.051000000
H    -2.833000000    -5.093000000    -4.126000000
C    -1.071000000    -4.529000000    -3.111000000
O    -1.247000000    -5.588000000    -2.344000000
C    -0.202000000    -6.242000000    -1.609000000
C     0.768000000    -7.016000000    -2.275000000
H     0.885000000    -7.120000000    -3.350000000
C     1.771000000    -7.697000000    -1.587000000
H     2.520000000    -8.327000000    -2.060000000
C     1.786000000    -7.610000000    -0.200000000
H     2.514000000    -8.135000000     0.413000000
C     0.852000000    -6.854000000     0.458000000
C    -0.198000000    -6.153000000    -0.213000000
H    -0.933000000    -5.534000000     0.294000000
C    -1.201000000    -1.967000000     1.425000000
H    -1.141000000    -2.523000000     2.357000000
C    -0.116000000    -1.051000000     1.167000000
H     0.638000000    -0.871000000     1.928000000
C    -0.041000000    -0.400000000    -0.044000000
H     0.718000000     0.369000000    -0.296000000
C    -1.009000000    -0.616000000    -1.017000000
H    -0.908000000    -0.073000000    -1.953000000
C    -2.034000000    -1.546000000    -0.756000000
H    -2.727000000    -1.831000000    -1.544000000
C    -2.093000000    -2.228000000     0.421000000
C    -3.353000000    -3.146000000     0.670000000
O    -4.360000000    -3.024000000     0.014000000
O    -3.235000000    -4.086000000     1.418000000
O    -3.892000000    -2.889000000     3.881000000
H    -3.618000000    -3.002000000     2.971000000
H    -4.332000000    -3.710000000     4.103000000
O    -6.276000000    -4.763000000    -0.904000000
H    -5.725000000    -4.027000000    -0.637000000
H    -7.171000000    -4.460000000    -0.752000000
O    -7.537000000     0.053000000    -2.502000000
H    -7.455000000     0.480000000    -1.649000000
H    -6.737000000    -0.467000000    -2.587000000
O    -2.543000000    -5.531000000     6.061000000
H    -1.613000000    -5.670000000     6.245000000
H    -2.552000000    -4.950000000     5.301000000
O    -5.428000000    -5.978000000    -3.684000000
H    -5.853000000    -6.013000000    -2.827000000
H    -5.116000000    -6.870000000    -3.834000000
O    -8.390000000    -5.695000000     2.013000000
H    -7.519000000    -5.971000000     1.727000000
H    -8.368000000    -4.740000000     1.960000000
O    -5.386000000    -5.733000000     4.659000000
H    -5.696000000    -5.855000000     3.762000000
H    -4.457000000    -5.959000000     4.625000000
O    -6.797000000    -8.252000000     2.262000000
H    -6.649000000    -8.976000000     1.654000000
H    -6.345000000    -7.508000000     1.863000000
O    -3.574000000    -6.776000000    -1.279000000
H    -4.131000000    -6.009000000    -1.147000000
H    -2.800000000    -6.436000000    -1.728000000
O    -2.904000000    -9.408000000    -1.504000000
H    -3.155000000    -8.496000000    -1.357000000
H    -3.691000000    -9.819000000    -1.861000000
O    -6.186000000    -1.195000000     0.714000000
H    -5.521000000    -1.847000000     0.937000000
H    -6.562000000    -1.508000000    -0.108000000
O    -4.711000000    -2.284000000     6.907000000
H    -5.511000000    -2.199000000     6.388000000
H    -4.007000000    -2.305000000     6.259000000
O    -7.051000000     0.109000000     3.126000000
H    -7.961000000     0.060000000     2.834000000
H    -6.538000000    -0.135000000     2.356000000
O    -2.054000000    -5.819000000     3.035000000
H    -2.480000000    -5.246000000     2.398000000
H    -1.196000000    -6.006000000     2.654000000
O    -8.078000000    -3.229000000     0.391000000
H    -8.992000000    -3.164000000     0.116000000
H    -8.049000000    -2.782000000     1.237000000
O    -8.474000000    -2.772000000     3.015000000
H    -9.087000000    -3.248000000     3.576000000
H    -7.970000000    -2.227000000     3.619000000
O    -5.892000000    -2.168000000    -2.424000000
H    -5.039000000    -1.934000000    -2.057000000
H    -5.896000000    -3.125000000    -2.430000000
O    -3.843000000    -8.082000000     3.309000000
H    -4.115000000    -8.539000000     2.513000000
H    -3.534000000    -7.230000000     3.001000000
O    -5.437000000    -5.618000000     1.640000000
H    -4.613000000    -5.134000000     1.685000000
H    -5.696000000    -5.565000000     0.720000000
