215
-1451.09145
C    -1.840000000     2.624000000     3.594000000
H    -1.996000000     3.253000000     2.722000000
C    -0.628000000     2.142000000     4.012000000
C    -0.645000000     1.267000000     5.075000000
H     0.319000000     0.846000000     5.351000000
C     0.653000000     2.566000000     3.291000000
O     0.687000000     4.005000000     2.904000000
H     0.720000000     2.003000000     2.349000000
O     1.899000000     2.199000000     4.012000000
C     2.891000000     1.571000000     3.281000000
C     2.931000000     0.187000000     3.350000000
H     2.330000000    -0.391000000     4.047000000
C     3.817000000    -0.520000000     2.579000000
O     3.758000000    -1.911000000     2.588000000
C     4.644000000     0.167000000     1.680000000
C     5.581000000    -0.638000000     0.798000000
H     6.527000000    -0.132000000     0.597000000
C     4.850000000    -1.153000000    -0.460000000
C     4.927000000    -0.373000000    -1.668000000
H     5.558000000     0.507000000    -1.761000000
H     5.986000000    -1.485000000     1.356000000
C     4.576000000     1.608000000     1.601000000
H     5.211000000     2.164000000     0.916000000
C     3.691000000     2.278000000     2.445000000
C     3.556000000     3.771000000     2.255000000
H     4.516000000     4.146000000     1.894000000
H     3.401000000     4.270000000     3.214000000
C     2.412000000     4.021000000     1.260000000
C     2.675000000     4.148000000    -0.140000000
H     3.691000000     3.969000000    -0.484000000
C     1.053000000     4.249000000     1.616000000
C     0.051000000     4.542000000     0.737000000
H    -1.004000000     4.626000000     0.987000000
C     0.351000000     4.593000000    -0.619000000
O    -0.704000000     4.755000000    -1.483000000
C    -1.202000000     3.599000000    -2.267000000
C    -2.731000000     3.539000000    -2.276000000
C    -3.386000000     2.591000000    -3.118000000
H    -2.869000000     2.034000000    -3.896000000
C    -3.513000000     4.252000000    -1.353000000
H    -3.006000000     4.937000000    -0.678000000
O    -0.559000000     3.419000000    -3.532000000
H    -0.858000000     2.712000000    -1.714000000
C     1.661000000     4.449000000    -1.092000000
C     2.058000000     4.561000000    -2.542000000
H     3.065000000     4.970000000    -2.652000000
H     1.430000000     5.309000000    -3.030000000
C     1.825000000     3.205000000    -3.225000000
C     2.928000000     2.371000000    -3.373000000
H     3.877000000     2.755000000    -3.006000000
C     0.610000000     2.697000000    -3.600000000
C     0.482000000     1.442000000    -4.088000000
H    -0.458000000     1.054000000    -4.472000000
C     1.564000000     0.618000000    -4.245000000
O     1.259000000    -0.628000000    -4.610000000
C     1.243000000    -1.737000000    -3.641000000
C     0.015000000    -2.609000000    -3.797000000
C    -1.098000000    -2.079000000    -4.511000000
H    -0.962000000    -1.177000000    -5.102000000
C    -0.062000000    -3.761000000    -3.008000000
H     0.746000000    -4.121000000    -2.377000000
O     2.504000000    -2.421000000    -3.739000000
H     1.129000000    -1.331000000    -2.625000000
C     2.858000000     1.079000000    -3.893000000
C     4.070000000     0.227000000    -3.955000000
H     5.024000000     0.744000000    -4.084000000
H     3.937000000    -0.448000000    -4.803000000
C     4.198000000    -0.779000000    -2.832000000
C     3.407000000    -1.953000000    -2.769000000
C     3.513000000    -2.837000000    -1.648000000
H     2.969000000    -3.777000000    -1.602000000
C     4.138000000    -2.369000000    -0.473000000
O     3.976000000    -3.162000000     0.579000000
C     3.057000000    -2.633000000     1.575000000
H     2.329000000    -1.962000000     1.095000000
C     2.147000000    -3.705000000     2.186000000
C     1.316000000    -3.423000000     3.258000000
H     1.274000000    -2.470000000     3.779000000
C     1.994000000    -4.936000000     1.565000000
H     2.470000000    -5.188000000     0.621000000
C     1.182000000    -5.922000000     2.161000000
O     1.121000000    -7.118000000     1.476000000
C     0.326000000    -5.599000000     3.213000000
H    -0.324000000    -6.354000000     3.647000000
C     0.405000000    -4.343000000     3.763000000
O    -0.510000000    -3.964000000     4.726000000
C    -0.220000000    -3.007000000     5.713000000
C    -1.144000000    -2.018000000     5.927000000
H    -2.043000000    -1.847000000     5.340000000
C     0.756000000    -3.156000000     6.695000000
H     1.437000000    -4.002000000     6.647000000
C     0.940000000    -2.258000000     7.784000000
H     1.744000000    -2.410000000     8.500000000
C     0.031000000    -1.182000000     7.878000000
H     0.201000000    -0.420000000     8.634000000
C    -0.943000000    -1.024000000     6.906000000
O    -1.805000000    -0.003000000     6.912000000
C    -1.765000000     0.926000000     5.864000000
C    -2.946000000     1.403000000     5.404000000
H    -3.846000000     1.251000000     5.995000000
C    -3.003000000     2.227000000     4.290000000
O    -4.254000000     2.754000000     3.964000000
C    -4.501000000     3.827000000     3.124000000
C    -4.972000000     3.654000000     1.829000000
H    -4.926000000     2.740000000     1.243000000
C    -4.611000000     5.061000000     3.748000000
H    -4.326000000     5.143000000     4.794000000
C    -4.943000000     6.119000000     2.960000000
H    -5.057000000     7.079000000     3.457000000
C    -5.249000000     6.006000000     1.614000000
H    -5.473000000     6.895000000     1.030000000
C    -5.309000000     4.710000000     1.032000000
O    -5.741000000     4.603000000    -0.309000000
C    -4.887000000     4.030000000    -1.300000000
C    -5.511000000     3.218000000    -2.234000000
H    -6.575000000     3.013000000    -2.155000000
C    -4.740000000     2.443000000    -3.123000000
O    -5.374000000     1.594000000    -3.927000000
C    -4.770000000     0.838000000    -4.850000000
C    -4.403000000    -0.472000000    -4.546000000
H    -4.607000000    -0.823000000    -3.537000000
C    -4.611000000     1.298000000    -6.151000000
H    -4.768000000     2.371000000    -6.227000000
C    -3.923000000     0.651000000    -7.114000000
H    -3.838000000     1.207000000    -8.044000000
C    -3.526000000    -0.676000000    -6.833000000
H    -3.082000000    -1.228000000    -7.658000000
C    -3.796000000    -1.207000000    -5.600000000
O    -3.385000000    -2.501000000    -5.359000000
C    -2.310000000    -2.844000000    -4.526000000
C    -2.320000000    -4.031000000    -3.928000000
H    -3.260000000    -4.567000000    -4.030000000
C    -1.213000000    -4.549000000    -3.152000000
O    -1.332000000    -5.765000000    -2.469000000
C    -0.316000000    -6.490000000    -1.840000000
C     0.301000000    -7.459000000    -2.643000000
H     0.121000000    -7.494000000    -3.715000000
C     1.232000000    -8.265000000    -2.041000000
H     1.890000000    -8.845000000    -2.684000000
C     1.455000000    -8.179000000    -0.662000000
H     2.337000000    -8.720000000    -0.330000000
C     0.820000000    -7.194000000     0.167000000
C    -0.064000000    -6.357000000    -0.444000000
H    -0.624000000    -5.628000000     0.136000000
C    -1.274000000    -2.639000000     0.993000000
H    -1.343000000    -3.333000000     1.828000000
C    -0.252000000    -1.627000000     0.933000000
H     0.461000000    -1.600000000     1.753000000
C    -0.153000000    -0.765000000    -0.196000000
H     0.700000000    -0.113000000    -0.235000000
C    -1.202000000    -0.782000000    -1.112000000
H    -1.067000000    -0.132000000    -1.973000000
C    -2.206000000    -1.748000000    -1.055000000
H    -3.019000000    -1.677000000    -1.773000000
C    -2.316000000    -2.602000000     0.061000000
C    -3.469000000    -3.597000000     0.151000000
O    -4.481000000    -3.513000000    -0.539000000
O    -3.467000000    -4.362000000     1.122000000
O    -3.718000000    -3.613000000     3.641000000
H    -3.487000000    -4.007000000     2.800000000
H    -3.833000000    -2.683000000     3.446000000
O    -6.352000000    -3.880000000    -4.718000000
H    -5.419000000    -3.790000000    -4.524000000
H    -6.776000000    -3.888000000    -3.859000000
O    -6.851000000     0.331000000    -0.687000000
H    -7.043000000     1.111000000    -0.166000000
H    -6.158000000    -0.116000000    -0.202000000
O    -1.993000000    -8.631000000     3.625000000
H    -2.241000000    -7.765000000     3.302000000
H    -2.685000000    -9.212000000     3.308000000
O    -3.070000000    -5.576000000     5.305000000
H    -2.259000000    -5.126000000     5.542000000
H    -3.645000000    -4.881000000     4.984000000
O    -5.789000000    -7.522000000    -3.999000000
H    -5.262000000    -7.302000000    -3.231000000
H    -6.516000000    -8.039000000    -3.650000000
O    -8.131000000    -5.851000000     1.878000000
H    -7.254000000    -5.691000000     1.529000000
H    -8.690000000    -5.226000000     1.415000000
O    -6.159000000    -7.324000000     3.013000000
H    -5.398000000    -7.039000000     2.508000000
H    -6.908000000    -6.955000000     2.545000000
O    -4.271000000    -6.907000000    -1.748000000
H    -3.893000000    -6.057000000    -1.524000000
H    -3.833000000    -7.525000000    -1.163000000
O    -2.859000000    -9.087000000    -2.854000000
H    -3.150000000    -8.370000000    -2.290000000
H    -3.668000000    -9.452000000    -3.213000000
O    -4.519000000    -0.881000000     3.486000000
H    -4.636000000    -0.655000000     2.563000000
H    -4.979000000    -0.190000000     3.962000000
O    -2.729000000    -7.977000000     0.311000000
H    -1.796000000    -7.937000000     0.100000000
H    -2.813000000    -7.476000000     1.122000000
O    -3.324000000    -6.423000000     2.668000000
H    -3.245000000    -5.753000000     1.990000000
H    -3.460000000    -5.930000000     3.478000000
O    -6.685000000    -3.506000000    -2.130000000
H    -7.178000000    -4.223000000    -1.732000000
H    -5.835000000    -3.526000000    -1.690000000
O    -7.954000000    -2.189000000     2.075000000
H    -8.356000000    -3.054000000     2.000000000
H    -8.292000000    -1.702000000     1.323000000
O    -5.602000000    -1.465000000     0.837000000
H    -5.329000000    -2.251000000     0.364000000
H    -6.125000000    -1.794000000     1.568000000
O    -8.149000000    -1.325000000    -2.809000000
H    -7.602000000    -2.085000000    -2.612000000
H    -7.936000000    -0.693000000    -2.122000000
O    -5.059000000    -9.572000000     0.302000000
H    -4.246000000    -9.074000000     0.222000000
H    -5.007000000    -9.979000000     1.167000000
O    -6.121000000    -5.592000000     0.090000000
H    -5.355000000    -5.025000000     0.179000000
H    -5.892000000    -6.194000000    -0.618000000
