215
-1432.40210
C    -1.964000000     2.630000000     4.004000000
H    -2.012000000     3.584000000     3.485000000
C    -0.716000000     1.986000000     4.167000000
C    -0.774000000     0.740000000     4.811000000
H     0.120000000     0.122000000     4.800000000
C     0.504000000     2.383000000     3.374000000
O     0.553000000     3.774000000     2.977000000
H     0.450000000     1.742000000     2.482000000
O     1.745000000     2.207000000     4.047000000
C     2.825000000     1.693000000     3.401000000
C     2.996000000     0.311000000     3.521000000
H     2.279000000    -0.276000000     4.089000000
C     3.939000000    -0.348000000     2.671000000
O     4.032000000    -1.745000000     2.735000000
C     4.722000000     0.381000000     1.724000000
C     5.575000000    -0.327000000     0.738000000
H     6.336000000     0.360000000     0.359000000
C     4.777000000    -0.720000000    -0.525000000
C     4.662000000     0.136000000    -1.629000000
H     5.173000000     1.094000000    -1.584000000
H     6.068000000    -1.160000000     1.243000000
C     4.475000000     1.730000000     1.637000000
H     4.923000000     2.336000000     0.853000000
C     3.549000000     2.420000000     2.396000000
C     3.187000000     3.895000000     2.161000000
H     4.096000000     4.372000000     1.789000000
H     3.093000000     4.433000000     3.107000000
C     2.005000000     4.102000000     1.235000000
C     2.250000000     4.459000000    -0.148000000
H     3.230000000     4.645000000    -0.579000000
C     0.737000000     4.018000000     1.703000000
C    -0.335000000     4.323000000     0.840000000
H    -1.354000000     4.208000000     1.201000000
C    -0.117000000     4.513000000    -0.501000000
O    -1.224000000     4.613000000    -1.336000000
C    -1.539000000     3.455000000    -2.095000000
C    -3.041000000     3.232000000    -2.046000000
C    -3.494000000     2.170000000    -2.822000000
H    -2.950000000     1.640000000    -3.600000000
C    -3.855000000     3.737000000    -1.039000000
H    -3.396000000     4.348000000    -0.266000000
O    -1.093000000     3.567000000    -3.459000000
H    -1.030000000     2.600000000    -1.626000000
C     1.185000000     4.534000000    -1.001000000
C     1.408000000     4.802000000    -2.479000000
H     2.423000000     5.190000000    -2.587000000
H     0.765000000     5.521000000    -2.991000000
C     1.298000000     3.502000000    -3.302000000
C     2.469000000     2.791000000    -3.450000000
H     3.397000000     3.153000000    -3.015000000
C     0.079000000     2.971000000    -3.779000000
C     0.111000000     1.764000000    -4.470000000
H    -0.924000000     1.476000000    -4.641000000
C     1.302000000     1.011000000    -4.595000000
O     1.127000000    -0.257000000    -4.927000000
C     1.069000000    -1.284000000    -3.899000000
C     0.037000000    -2.430000000    -4.025000000
C    -1.016000000    -2.281000000    -4.975000000
H    -1.100000000    -1.357000000    -5.541000000
C     0.060000000    -3.618000000    -3.299000000
H     0.894000000    -3.899000000    -2.660000000
O     2.407000000    -1.816000000    -3.709000000
H     0.802000000    -0.827000000    -2.935000000
C     2.452000000     1.471000000    -3.982000000
C     3.748000000     0.602000000    -3.980000000
H     4.618000000     1.262000000    -3.961000000
H     3.747000000     0.035000000    -4.913000000
C     3.839000000    -0.247000000    -2.666000000
C     3.180000000    -1.507000000    -2.625000000
C     3.274000000    -2.363000000    -1.517000000
H     2.812000000    -3.343000000    -1.429000000
C     4.070000000    -1.941000000    -0.489000000
O     4.135000000    -2.784000000     0.638000000
C     3.221000000    -2.419000000     1.715000000
H     2.529000000    -1.688000000     1.272000000
C     2.453000000    -3.605000000     2.272000000
C     1.901000000    -3.573000000     3.550000000
H     1.971000000    -2.683000000     4.171000000
C     2.257000000    -4.805000000     1.468000000
H     2.610000000    -4.904000000     0.445000000
C     1.681000000    -5.888000000     2.018000000
O     1.597000000    -7.107000000     1.306000000
C     1.219000000    -5.875000000     3.347000000
H     0.896000000    -6.805000000     3.808000000
C     1.285000000    -4.705000000     4.109000000
O     0.903000000    -4.746000000     5.398000000
C     0.616000000    -3.521000000     6.046000000
C    -0.478000000    -2.767000000     5.649000000
H    -1.169000000    -3.084000000     4.872000000
C     1.409000000    -3.020000000     7.149000000
H     2.147000000    -3.657000000     7.630000000
C     1.127000000    -1.755000000     7.694000000
H     1.750000000    -1.340000000     8.481000000
C     0.083000000    -1.034000000     7.191000000
H    -0.265000000    -0.104000000     7.634000000
C    -0.819000000    -1.611000000     6.281000000
O    -1.967000000    -0.922000000     5.963000000
C    -1.941000000     0.299000000     5.377000000
C    -3.111000000     1.096000000     5.358000000
H    -4.023000000     0.702000000     5.800000000
C    -3.130000000     2.318000000     4.681000000
O    -4.255000000     3.031000000     4.516000000
C    -4.589000000     3.941000000     3.502000000
C    -5.291000000     3.442000000     2.400000000
H    -5.485000000     2.373000000     2.400000000
C    -4.083000000     5.255000000     3.515000000
H    -3.467000000     5.585000000     4.347000000
C    -4.427000000     6.096000000     2.467000000
H    -4.145000000     7.141000000     2.561000000
C    -5.157000000     5.616000000     1.407000000
H    -5.512000000     6.253000000     0.601000000
C    -5.408000000     4.232000000     1.288000000
O    -5.963000000     3.749000000     0.142000000
C    -5.153000000     3.283000000    -0.893000000
C    -5.698000000     2.375000000    -1.798000000
H    -6.737000000     2.076000000    -1.688000000
C    -4.830000000     1.831000000    -2.778000000
O    -5.468000000     1.008000000    -3.639000000
C    -4.862000000     0.369000000    -4.701000000
C    -4.321000000    -0.891000000    -4.578000000
H    -4.401000000    -1.409000000    -3.625000000
C    -4.644000000     1.131000000    -5.875000000
H    -4.879000000     2.191000000    -5.843000000
C    -4.026000000     0.556000000    -6.980000000
H    -3.916000000     1.113000000    -7.907000000
C    -3.564000000    -0.781000000    -6.893000000
H    -3.085000000    -1.350000000    -7.686000000
C    -3.667000000    -1.495000000    -5.716000000
O    -3.089000000    -2.760000000    -5.775000000
C    -2.063000000    -3.173000000    -5.039000000
C    -2.120000000    -4.296000000    -4.168000000
H    -2.989000000    -4.948000000    -4.170000000
C    -1.036000000    -4.510000000    -3.302000000
O    -1.148000000    -5.658000000    -2.451000000
C    -0.021000000    -6.269000000    -1.888000000
C     0.825000000    -6.941000000    -2.788000000
H     0.716000000    -6.770000000    -3.856000000
C     1.862000000    -7.757000000    -2.276000000
H     2.635000000    -8.167000000    -2.920000000
C     2.081000000    -7.837000000    -0.897000000
H     2.783000000    -8.520000000    -0.427000000
C     1.226000000    -7.185000000    -0.022000000
C     0.143000000    -6.413000000    -0.501000000
H    -0.572000000    -5.889000000     0.129000000
C    -1.253000000    -2.123000000     0.765000000
H    -1.327000000    -2.900000000     1.521000000
C    -0.294000000    -1.163000000     0.930000000
H     0.313000000    -1.044000000     1.824000000
C    -0.006000000    -0.303000000    -0.124000000
H     0.692000000     0.440000000     0.027000000
C    -0.857000000    -0.285000000    -1.258000000
H    -0.838000000     0.516000000    -1.993000000
C    -1.834000000    -1.231000000    -1.419000000
H    -2.412000000    -1.233000000    -2.340000000
C    -1.969000000    -2.243000000    -0.418000000
C    -2.911000000    -3.442000000    -0.523000000
O    -3.743000000    -3.381000000    -1.344000000
O    -2.888000000    -4.327000000     0.346000000
O    -3.818000000    -6.885000000    -6.127000000
H    -4.718000000    -7.020000000    -6.425000000
H    -3.764000000    -7.367000000    -5.302000000
O    -2.465000000    -5.021000000     2.836000000
H    -2.535000000    -4.704000000     1.936000000
H    -3.344000000    -4.908000000     3.198000000
O    -6.568000000    -6.263000000    -2.496000000
H    -6.244000000    -6.848000000    -3.181000000
H    -7.520000000    -6.344000000    -2.543000000
O    -5.231000000    -1.458000000    -0.115000000
H    -4.466000000    -1.008000000     0.243000000
H    -4.880000000    -2.013000000    -0.811000000
O    -1.890000000    -6.042000000     5.161000000
H    -1.991000000    -5.749000000     4.256000000
H    -2.404000000    -5.418000000     5.674000000
O    -3.132000000    -7.688000000    -3.732000000
H    -3.050000000    -6.881000000    -3.224000000
H    -3.614000000    -8.283000000    -3.158000000
O     0.374000000    -5.191000000    -6.242000000
H    -0.338000000    -4.832000000    -5.711000000
H     0.865000000    -4.423000000    -6.533000000
O    -7.265000000    -2.290000000    -4.931000000
H    -6.694000000    -2.677000000    -4.267000000
H    -7.580000000    -3.037000000    -5.440000000
O    -6.151000000    -6.368000000     0.069000000
H    -6.245000000    -5.545000000     0.549000000
H    -6.356000000    -6.140000000    -0.838000000
O    -3.470000000    -9.090000000    -0.252000000
H    -3.380000000    -8.140000000    -0.176000000
H    -3.982000000    -9.219000000    -1.051000000
O    -8.748000000    -3.100000000     0.724000000
H    -8.501000000    -3.259000000    -0.187000000
H    -9.351000000    -2.358000000     0.683000000
O    -6.590000000    -2.846000000     3.954000000
H    -5.980000000    -3.444000000     3.522000000
H    -7.420000000    -2.979000000     3.497000000
O    -6.332000000    -6.879000000     2.790000000
H    -5.888000000    -6.250000000     3.358000000
H    -5.968000000    -6.714000000     1.920000000
O    -7.383000000     0.637000000     2.175000000
H    -7.961000000     1.309000000     1.813000000
H    -7.222000000     0.041000000     1.444000000
O    -5.680000000    -3.510000000    -3.040000000
H    -6.104000000    -4.363000000    -2.948000000
H    -4.904000000    -3.567000000    -2.483000000
O    -5.417000000    -3.988000000     1.085000000
H    -4.596000000    -4.132000000     0.616000000
H    -5.672000000    -3.095000000     0.853000000
O    -7.603000000    -0.421000000    -2.096000000
H    -7.504000000     0.105000000    -2.890000000
H    -6.732000000    -0.420000000    -1.698000000
O    -9.027000000    -2.953000000    -2.123000000
H    -8.392000000    -2.253000000    -2.274000000
H    -9.501000000    -3.030000000    -2.951000000
O    -3.489000000    -6.568000000    -0.796000000
H    -3.066000000    -5.770000000    -0.478000000
H    -4.377000000    -6.293000000    -1.025000000
