215
-1462.56433
C    -2.200000000     2.337000000     4.206000000
H    -2.077000000     3.301000000     3.718000000
C    -1.036000000     1.609000000     4.255000000
C    -1.109000000     0.276000000     4.758000000
H    -0.187000000    -0.296000000     4.696000000
C     0.311000000     2.191000000     3.612000000
O     0.210000000     3.585000000     3.226000000
H     0.292000000     1.621000000     2.672000000
O     1.520000000     1.929000000     4.409000000
C     2.602000000     1.437000000     3.649000000
C     2.803000000     0.074000000     3.728000000
H     2.194000000    -0.525000000     4.400000000
C     3.689000000    -0.528000000     2.846000000
O     3.809000000    -1.894000000     2.739000000
C     4.426000000     0.263000000     1.918000000
C     5.474000000    -0.355000000     0.951000000
H     6.254000000     0.389000000     0.774000000
C     4.748000000    -0.829000000    -0.313000000
C     4.857000000     0.010000000    -1.447000000
H     5.269000000     1.004000000    -1.295000000
H     6.098000000    -1.147000000     1.369000000
C     4.118000000     1.639000000     1.762000000
H     4.535000000     2.223000000     0.945000000
C     3.284000000     2.239000000     2.736000000
C     3.054000000     3.772000000     2.650000000
H     3.959000000     4.303000000     2.347000000
H     2.790000000     4.314000000     3.561000000
C     2.006000000     3.951000000     1.606000000
C     2.358000000     4.294000000     0.305000000
H     3.394000000     4.313000000    -0.023000000
C     0.662000000     3.947000000     2.017000000
C    -0.310000000     4.134000000     1.140000000
H    -1.355000000     4.267000000     1.410000000
C     0.032000000     4.472000000    -0.220000000
O    -0.997000000     4.597000000    -1.090000000
C    -1.232000000     3.564000000    -2.050000000
C    -2.736000000     3.264000000    -2.164000000
C    -3.243000000     2.511000000    -3.240000000
H    -2.676000000     2.420000000    -4.163000000
C    -3.593000000     3.485000000    -1.024000000
H    -3.227000000     4.000000000    -0.140000000
O    -0.618000000     3.708000000    -3.386000000
H    -0.818000000     2.642000000    -1.616000000
C     1.372000000     4.548000000    -0.577000000
C     1.760000000     4.865000000    -2.025000000
H     2.666000000     5.475000000    -2.020000000
H     0.965000000     5.512000000    -2.401000000
C     1.859000000     3.648000000    -2.900000000
C     3.084000000     2.938000000    -3.086000000
H     4.012000000     3.364000000    -2.713000000
C     0.671000000     3.102000000    -3.413000000
C     0.708000000     1.929000000    -4.130000000
H    -0.260000000     1.495000000    -4.366000000
C     1.849000000     1.189000000    -4.198000000
O     1.708000000     0.008000000    -4.887000000
C     1.542000000    -1.110000000    -3.967000000
C     0.417000000    -2.043000000    -4.389000000
C    -0.607000000    -1.740000000    -5.254000000
H    -0.558000000    -0.850000000    -5.875000000
C     0.186000000    -3.172000000    -3.514000000
H     0.919000000    -3.416000000    -2.749000000
O     2.739000000    -1.849000000    -3.837000000
H     1.317000000    -0.628000000    -3.004000000
C     3.036000000     1.654000000    -3.711000000
C     4.185000000     0.714000000    -3.817000000
H     5.084000000     1.308000000    -3.998000000
H     4.196000000     0.140000000    -4.746000000
C     4.181000000    -0.287000000    -2.654000000
C     3.492000000    -1.522000000    -2.708000000
C     3.453000000    -2.397000000    -1.624000000
H     2.928000000    -3.346000000    -1.701000000
C     4.029000000    -2.030000000    -0.453000000
O     3.830000000    -2.959000000     0.605000000
C     3.018000000    -2.564000000     1.720000000
H     2.379000000    -1.732000000     1.388000000
C     2.205000000    -3.742000000     2.375000000
C     1.839000000    -3.753000000     3.683000000
H     2.055000000    -2.910000000     4.334000000
C     1.804000000    -4.767000000     1.501000000
H     2.131000000    -4.788000000     0.464000000
C     1.123000000    -5.868000000     1.973000000
O     0.827000000    -6.976000000     1.162000000
C     0.707000000    -5.873000000     3.319000000
H     0.265000000    -6.752000000     3.781000000
C     1.025000000    -4.811000000     4.122000000
O     0.838000000    -4.972000000     5.510000000
C     0.250000000    -3.909000000     6.273000000
C    -0.868000000    -3.201000000     5.751000000
H    -1.434000000    -3.625000000     4.926000000
C     0.823000000    -3.384000000     7.474000000
H     1.754000000    -3.776000000     7.875000000
C     0.411000000    -2.124000000     7.995000000
H     0.834000000    -1.823000000     8.950000000
C    -0.656000000    -1.485000000     7.422000000
H    -0.961000000    -0.500000000     7.765000000
C    -1.245000000    -2.002000000     6.288000000
O    -2.364000000    -1.475000000     5.713000000
C    -2.322000000    -0.188000000     5.214000000
C    -3.459000000     0.653000000     5.182000000
H    -4.349000000     0.207000000     5.619000000
C    -3.432000000     1.960000000     4.678000000
O    -4.537000000     2.769000000     4.649000000
C    -4.792000000     3.609000000     3.598000000
C    -5.219000000     2.971000000     2.470000000
H    -5.230000000     1.889000000     2.373000000
C    -4.639000000     4.959000000     3.731000000
H    -4.260000000     5.505000000     4.591000000
C    -4.760000000     5.767000000     2.527000000
H    -4.630000000     6.846000000     2.539000000
C    -5.224000000     5.118000000     1.302000000
H    -5.581000000     5.653000000     0.426000000
C    -5.360000000     3.705000000     1.296000000
O    -5.639000000     3.016000000     0.132000000
C    -4.835000000     2.950000000    -0.965000000
C    -5.311000000     2.223000000    -2.052000000
H    -6.312000000     1.800000000    -2.027000000
C    -4.547000000     2.026000000    -3.249000000
O    -5.119000000     1.333000000    -4.300000000
C    -4.352000000     0.866000000    -5.351000000
C    -3.755000000    -0.346000000    -5.248000000
H    -3.869000000    -0.947000000    -4.350000000
C    -4.362000000     1.552000000    -6.582000000
H    -4.899000000     2.497000000    -6.606000000
C    -3.729000000     0.955000000    -7.675000000
H    -3.627000000     1.526000000    -8.595000000
C    -3.168000000    -0.315000000    -7.561000000
H    -2.626000000    -0.750000000    -8.396000000
C    -3.213000000    -0.992000000    -6.368000000
O    -2.657000000    -2.224000000    -6.340000000
C    -1.725000000    -2.548000000    -5.405000000
C    -1.888000000    -3.671000000    -4.579000000
H    -2.699000000    -4.387000000    -4.678000000
C    -0.952000000    -4.022000000    -3.652000000
O    -1.186000000    -5.070000000    -2.806000000
C    -0.177000000    -5.792000000    -2.199000000
C     0.701000000    -6.468000000    -2.994000000
H     0.806000000    -6.293000000    -4.062000000
C     1.704000000    -7.280000000    -2.411000000
H     2.490000000    -7.752000000    -2.994000000
C     1.701000000    -7.509000000    -1.003000000
H     2.468000000    -8.096000000    -0.506000000
C     0.768000000    -6.803000000    -0.220000000
C    -0.152000000    -5.877000000    -0.808000000
H    -0.867000000    -5.310000000    -0.217000000
C    -1.340000000    -1.901000000     1.472000000
H    -1.416000000    -2.264000000     2.493000000
C    -0.317000000    -1.026000000     1.265000000
H     0.420000000    -0.787000000     2.028000000
C    -0.137000000    -0.525000000     0.017000000
H     0.760000000     0.120000000    -0.079000000
C    -1.041000000    -0.832000000    -1.043000000
H    -0.986000000    -0.301000000    -1.989000000
C    -2.054000000    -1.794000000    -0.789000000
H    -2.663000000    -2.142000000    -1.619000000
C    -2.270000000    -2.287000000     0.525000000
C    -3.444000000    -3.154000000     0.885000000
O    -4.236000000    -3.570000000     0.022000000
O    -3.635000000    -3.416000000     2.041000000
O    -3.913000000    -5.087000000     3.817000000
H    -3.750000000    -4.391000000     3.181000000
H    -4.007000000    -4.631000000     4.653000000
O    -5.435000000    -4.206000000    -3.891000000
H    -4.749000000    -4.659000000    -3.402000000
H    -5.412000000    -4.604000000    -4.761000000
O    -2.530000000    -8.682000000    -3.073000000
H    -2.756000000    -7.805000000    -3.380000000
H    -2.890000000    -8.726000000    -2.187000000
O    -4.830000000    -0.179000000     0.066000000
H    -3.883000000    -0.065000000     0.146000000
H    -5.027000000    -0.938000000     0.613000000
O    -2.006000000    -6.617000000     4.751000000
H    -2.566000000    -5.960000000     4.339000000
H    -1.466000000    -6.120000000     5.366000000
O    -3.999000000    -6.212000000    -2.503000000
H    -3.233000000    -5.943000000    -1.995000000
H    -4.692000000    -6.322000000    -1.852000000
O    -4.890000000    -3.888000000     6.231000000
H    -5.699000000    -3.472000000     5.933000000
H    -4.585000000    -3.333000000     6.948000000
O    -3.333000000    -8.562000000    -0.261000000
H    -3.924000000    -7.809000000    -0.236000000
H    -3.391000000    -8.941000000     0.617000000
O    -7.090000000    -3.514000000     4.649000000
H    -6.922000000    -2.942000000     3.900000000
H    -7.991000000    -3.813000000     4.524000000
O    -6.449000000    -5.972000000     3.086000000
H    -5.553000000    -5.724000000     3.312000000
H    -6.998000000    -5.412000000     3.634000000
O    -7.731000000     0.306000000     0.122000000
H    -7.995000000     1.124000000    -0.299000000
H    -6.778000000     0.289000000     0.037000000
O    -2.886000000    -9.293000000     3.628000000
H    -2.033000000    -9.727000000     3.630000000
H    -2.694000000    -8.386000000     3.867000000
O    -6.424000000    -3.326000000    -1.506000000
H    -6.304000000    -3.751000000    -2.355000000
H    -5.641000000    -3.561000000    -1.008000000
O    -6.180000000    -2.490000000     2.117000000
H    -5.387000000    -3.017000000     2.013000000
H    -6.822000000    -2.909000000     1.544000000
O    -5.684000000    -0.885000000    -2.660000000
H    -5.640000000    -1.757000000    -2.268000000
H    -5.208000000    -0.323000000    -2.049000000
O    -8.473000000    -2.347000000    -0.116000000
H    -8.239000000    -1.419000000    -0.112000000
H    -7.828000000    -2.754000000    -0.693000000
O    -7.558000000    -0.141000000     2.848000000
H    -7.036000000    -0.941000000     2.787000000
H    -7.811000000     0.050000000     1.945000000
O    -8.150000000    -8.069000000     2.452000000
H    -7.931000000    -8.839000000     2.977000000
H    -7.382000000    -7.503000000     2.526000000
O    -4.926000000    -6.268000000     0.522000000
H    -4.630000000    -5.358000000     0.536000000
H    -5.515000000    -6.340000000     1.273000000
