215
-1480.58174
C    -2.992000000     2.022000000     4.464000000
H    -3.145000000     2.964000000     3.944000000
C    -1.706000000     1.446000000     4.626000000
C    -1.619000000     0.218000000     5.257000000
H    -0.648000000    -0.271000000     5.284000000
C    -0.446000000     2.037000000     3.973000000
O    -0.605000000     3.454000000     3.826000000
H    -0.262000000     1.595000000     2.983000000
O     0.728000000     1.734000000     4.756000000
C     1.805000000     1.333000000     4.019000000
C     2.092000000    -0.004000000     3.959000000
H     1.515000000    -0.696000000     4.568000000
C     3.099000000    -0.436000000     3.121000000
O     3.194000000    -1.735000000     2.832000000
C     3.871000000     0.503000000     2.351000000
C     5.057000000     0.065000000     1.503000000
H     5.767000000     0.894000000     1.464000000
C     4.621000000    -0.252000000     0.111000000
C     4.651000000     0.784000000    -0.905000000
H     5.003000000     1.797000000    -0.725000000
H     5.657000000    -0.755000000     1.902000000
C     3.627000000     1.857000000     2.510000000
H     4.131000000     2.540000000     1.831000000
C     2.548000000     2.314000000     3.386000000
C     2.228000000     3.753000000     3.441000000
H     3.159000000     4.314000000     3.342000000
H     1.909000000     4.011000000     4.453000000
C     1.225000000     4.142000000     2.315000000
C     1.688000000     4.513000000     1.095000000
H     2.739000000     4.681000000     0.871000000
C    -0.106000000     3.965000000     2.645000000
C    -1.003000000     4.313000000     1.650000000
H    -2.038000000     4.055000000     1.862000000
C    -0.568000000     4.666000000     0.352000000
O    -1.576000000     4.708000000    -0.589000000
C    -1.549000000     3.614000000    -1.521000000
C    -3.008000000     3.171000000    -1.822000000
C    -3.322000000     2.810000000    -3.117000000
H    -2.536000000     2.836000000    -3.868000000
C    -3.880000000     2.957000000    -0.710000000
H    -3.562000000     3.158000000     0.310000000
O    -0.798000000     3.960000000    -2.793000000
H    -1.032000000     2.728000000    -1.122000000
C     0.796000000     4.805000000     0.024000000
C     1.377000000     5.259000000    -1.360000000
H     2.300000000     5.773000000    -1.083000000
H     0.678000000     5.937000000    -1.854000000
C     1.637000000     4.057000000    -2.329000000
C     2.899000000     3.471000000    -2.444000000
H     3.695000000     3.970000000    -1.898000000
C     0.533000000     3.439000000    -2.918000000
C     0.718000000     2.252000000    -3.630000000
H    -0.123000000     1.710000000    -4.056000000
C     1.962000000     1.609000000    -3.712000000
O     2.113000000     0.522000000    -4.529000000
C     2.298000000    -0.757000000    -3.885000000
C     1.434000000    -1.805000000    -4.514000000
C     0.104000000    -1.425000000    -4.810000000
H    -0.219000000    -0.393000000    -4.702000000
C     1.864000000    -3.164000000    -4.615000000
H     2.839000000    -3.487000000    -4.258000000
O     3.708000000    -1.122000000    -3.815000000
H     1.952000000    -0.711000000    -2.842000000
C     3.090000000     2.252000000    -3.161000000
C     4.438000000     1.629000000    -3.255000000
H     5.293000000     2.288000000    -3.085000000
H     4.571000000     1.160000000    -4.233000000
C     4.465000000     0.521000000    -2.232000000
C     4.259000000    -0.827000000    -2.578000000
C     4.130000000    -1.854000000    -1.668000000
H     3.738000000    -2.841000000    -1.899000000
C     4.268000000    -1.563000000    -0.285000000
O     3.955000000    -2.482000000     0.682000000
C     2.791000000    -2.232000000     1.508000000
H     2.242000000    -1.395000000     1.052000000
C     1.960000000    -3.539000000     1.631000000
C     1.200000000    -3.743000000     2.787000000
H     1.407000000    -3.101000000     3.639000000
C     1.784000000    -4.464000000     0.563000000
H     2.248000000    -4.243000000    -0.395000000
C     0.911000000    -5.567000000     0.687000000
O     0.618000000    -6.341000000    -0.394000000
C     0.219000000    -5.741000000     1.870000000
H    -0.543000000    -6.515000000     1.831000000
C     0.342000000    -4.854000000     2.908000000
O    -0.560000000    -5.113000000     3.918000000
C    -0.579000000    -4.285000000     5.080000000
C    -1.531000000    -3.246000000     5.187000000
H    -2.273000000    -3.090000000     4.408000000
C     0.241000000    -4.671000000     6.118000000
H     0.766000000    -5.623000000     6.106000000
C     0.240000000    -3.846000000     7.236000000
H     1.002000000    -4.054000000     7.983000000
C    -0.614000000    -2.711000000     7.267000000
H    -0.447000000    -2.138000000     8.176000000
C    -1.541000000    -2.384000000     6.280000000
O    -2.551000000    -1.519000000     6.577000000
C    -2.709000000    -0.331000000     5.889000000
C    -3.998000000     0.212000000     5.626000000
H    -4.907000000    -0.238000000     6.016000000
C    -4.112000000     1.454000000     4.980000000
O    -5.301000000     2.036000000     4.764000000
C    -5.544000000     2.765000000     3.646000000
C    -5.717000000     2.105000000     2.463000000
H    -5.583000000     1.028000000     2.413000000
C    -5.519000000     4.183000000     3.684000000
H    -5.413000000     4.744000000     4.610000000
C    -5.698000000     4.901000000     2.529000000
H    -5.690000000     5.988000000     2.553000000
C    -5.819000000     4.249000000     1.311000000
H    -5.875000000     4.805000000     0.378000000
C    -5.952000000     2.852000000     1.323000000
O    -6.092000000     2.201000000     0.089000000
C    -5.122000000     2.308000000    -0.932000000
C    -5.525000000     2.044000000    -2.266000000
H    -6.428000000     1.513000000    -2.557000000
C    -4.580000000     2.210000000    -3.336000000
O    -4.853000000     1.582000000    -4.587000000
C    -3.857000000     1.099000000    -5.357000000
C    -3.456000000    -0.220000000    -5.125000000
H    -3.925000000    -0.853000000    -4.376000000
C    -3.246000000     1.863000000    -6.320000000
H    -3.649000000     2.846000000    -6.550000000
C    -2.185000000     1.341000000    -7.124000000
H    -1.789000000     1.947000000    -7.935000000
C    -1.819000000     0.046000000    -6.933000000
H    -1.113000000    -0.472000000    -7.577000000
C    -2.406000000    -0.706000000    -5.884000000
O    -2.029000000    -2.014000000    -5.709000000
C    -0.729000000    -2.375000000    -5.353000000
C    -0.275000000    -3.691000000    -5.560000000
H    -0.989000000    -4.397000000    -5.975000000
C     0.979000000    -4.055000000    -5.145000000
O     1.363000000    -5.345000000    -5.069000000
C     1.712000000    -5.974000000    -3.910000000
C     2.875000000    -6.748000000    -3.961000000
H     3.509000000    -6.764000000    -4.844000000
C     3.216000000    -7.425000000    -2.772000000
H     4.219000000    -7.843000000    -2.736000000
C     2.534000000    -7.289000000    -1.578000000
H     2.857000000    -7.716000000    -0.632000000
C     1.429000000    -6.416000000    -1.551000000
C     0.979000000    -5.859000000    -2.763000000
H     0.154000000    -5.152000000    -2.722000000
C    -1.349000000    -2.543000000     1.036000000
H    -1.713000000    -3.175000000     1.842000000
C    -0.627000000    -1.372000000     1.193000000
H    -0.364000000    -1.079000000     2.206000000
C    -0.217000000    -0.626000000     0.068000000
H     0.394000000     0.268000000     0.261000000
C    -0.644000000    -1.020000000    -1.170000000
H    -0.236000000    -0.449000000    -2.000000000
C    -1.264000000    -2.255000000    -1.380000000
H    -1.513000000    -2.648000000    -2.362000000
C    -1.628000000    -2.975000000    -0.309000000
C    -2.231000000    -4.345000000    -0.531000000
O    -2.441000000    -4.770000000    -1.628000000
O    -2.506000000    -5.049000000     0.394000000
O    -3.161000000    -5.939000000     2.746000000
H    -2.929000000    -5.658000000     1.861000000
H    -2.363000000    -5.802000000     3.258000000
O     0.969000000    -9.377000000    -3.120000000
H     0.169000000    -9.459000000    -3.639000000
H     0.968000000    -8.468000000    -2.820000000
O    -2.850000000    -6.403000000    -5.677000000
H    -3.535000000    -6.551000000    -5.025000000
H    -3.169000000    -5.665000000    -6.197000000
O    -5.158000000    -6.836000000    -4.112000000
H    -6.018000000    -7.144000000    -4.396000000
H    -5.024000000    -7.253000000    -3.261000000
O    -1.388000000    -8.199000000    -4.124000000
H    -1.727000000    -7.785000000    -3.330000000
H    -1.847000000    -7.756000000    -4.839000000
O    -4.648000000    -1.214000000    -0.505000000
H    -4.693000000    -1.814000000     0.239000000
H    -3.712000000    -1.061000000    -0.633000000
O    -1.326000000    -8.927000000     3.514000000
H    -1.435000000    -8.002000000     3.732000000
H    -1.388000000    -8.957000000     2.559000000
O    -7.271000000    -4.690000000     2.816000000
H    -7.304000000    -4.348000000     1.922000000
H    -8.008000000    -4.270000000     3.260000000
O    -4.753000000    -8.096000000    -1.822000000
H    -4.757000000    -7.403000000    -1.162000000
H    -5.226000000    -8.820000000    -1.413000000
O    -3.348000000   -10.443000000     0.886000000
H    -3.673000000   -10.101000000     0.053000000
H    -2.714000000    -9.790000000     1.183000000
O    -2.078000000    -7.366000000    -1.656000000
H    -2.992000000    -7.559000000    -1.865000000
H    -2.079000000    -6.442000000    -1.408000000
O    -6.987000000    -3.955000000     0.133000000
H    -7.451000000    -3.481000000    -0.557000000
H    -6.691000000    -4.762000000    -0.288000000
O    -5.689000000    -6.876000000     3.639000000
H    -4.752000000    -6.683000000     3.618000000
H    -6.106000000    -6.027000000     3.786000000
O    -0.953000000    -8.833000000     0.781000000
H    -0.017000000    -8.684000000     0.645000000
H    -1.374000000    -8.412000000     0.032000000
O    -3.982000000    -4.183000000    -3.551000000
H    -4.212000000    -5.106000000    -3.662000000
H    -3.171000000    -4.198000000    -3.043000000
O    -4.479000000    -3.286000000     1.167000000
H    -3.797000000    -3.947000000     1.286000000
H    -5.219000000    -3.770000000     0.800000000
O    -5.738000000    -1.937000000    -3.010000000
H    -5.209000000    -2.712000000    -3.200000000
H    -5.376000000    -1.595000000    -2.192000000
O    -5.819000000    -1.748000000     2.952000000
H    -5.076000000    -2.147000000     2.499000000
H    -6.459000000    -2.455000000     3.029000000
O    -5.158000000    -6.480000000     0.214000000
H    -4.288000000    -6.165000000     0.457000000
H    -5.644000000    -6.502000000     1.039000000
