215
-1453.23878
C    -2.201000000     1.452000000     4.633000000
H    -2.161000000     2.537000000     4.668000000
C    -1.065000000     0.715000000     4.486000000
C    -1.110000000    -0.660000000     4.693000000
H    -0.244000000    -1.303000000     4.561000000
C     0.159000000     1.391000000     4.003000000
O     0.132000000     2.819000000     4.114000000
H     0.297000000     1.067000000     2.961000000
O     1.336000000     0.920000000     4.685000000
C     2.516000000     0.627000000     3.975000000
C     2.772000000    -0.692000000     3.766000000
H     2.142000000    -1.461000000     4.207000000
C     3.774000000    -1.001000000     2.811000000
O     3.897000000    -2.282000000     2.465000000
C     4.535000000    -0.018000000     2.223000000
C     5.563000000    -0.252000000     1.140000000
H     6.292000000     0.560000000     1.111000000
C     4.917000000    -0.435000000    -0.254000000
C     4.812000000     0.756000000    -1.121000000
H     5.254000000     1.708000000    -0.838000000
H     6.143000000    -1.111000000     1.483000000
C     4.384000000     1.295000000     2.574000000
H     4.961000000     2.114000000     2.152000000
C     3.309000000     1.635000000     3.435000000
C     2.945000000     3.068000000     3.584000000
H     3.783000000     3.750000000     3.426000000
H     2.589000000     3.160000000     4.612000000
C     1.823000000     3.563000000     2.692000000
C     2.198000000     4.123000000     1.438000000
H     3.224000000     4.399000000     1.211000000
C     0.496000000     3.405000000     2.973000000
C    -0.524000000     3.732000000     2.056000000
H    -1.544000000     3.404000000     2.242000000
C    -0.229000000     4.396000000     0.889000000
O    -1.264000000     4.639000000     0.002000000
C    -1.522000000     3.709000000    -1.110000000
C    -2.899000000     3.206000000    -1.187000000
C    -3.308000000     2.522000000    -2.326000000
H    -2.637000000     2.359000000    -3.165000000
C    -3.845000000     3.384000000    -0.180000000
H    -3.460000000     3.792000000     0.750000000
O    -0.889000000     4.331000000    -2.287000000
H    -0.887000000     2.823000000    -0.965000000
C     1.150000000     4.585000000     0.540000000
C     1.507000000     5.251000000    -0.756000000
H     2.451000000     5.790000000    -0.649000000
H     0.756000000     6.000000000    -1.016000000
C     1.500000000     4.299000000    -1.926000000
C     2.735000000     3.627000000    -2.179000000
H     3.594000000     3.854000000    -1.552000000
C     0.354000000     3.974000000    -2.674000000
C     0.518000000     3.064000000    -3.722000000
H    -0.404000000     2.692000000    -4.161000000
C     1.731000000     2.361000000    -3.875000000
O     1.773000000     1.163000000    -4.620000000
C     1.695000000    -0.075000000    -3.954000000
C     0.693000000    -0.989000000    -4.605000000
C    -0.276000000    -0.458000000    -5.432000000
H    -0.416000000     0.609000000    -5.584000000
C     0.742000000    -2.416000000    -4.496000000
H     1.383000000    -2.941000000    -3.791000000
O     2.947000000    -0.725000000    -3.887000000
H     1.357000000     0.087000000    -2.920000000
C     2.850000000     2.672000000    -3.147000000
C     4.090000000     1.884000000    -3.299000000
H     4.976000000     2.510000000    -3.171000000
H     4.203000000     1.418000000    -4.280000000
C     4.145000000     0.698000000    -2.329000000
C     3.561000000    -0.550000000    -2.693000000
C     3.575000000    -1.685000000    -1.832000000
H     3.129000000    -2.572000000    -2.274000000
C     4.212000000    -1.598000000    -0.631000000
O     4.119000000    -2.744000000     0.144000000
C     3.237000000    -2.663000000     1.236000000
H     2.404000000    -2.010000000     0.940000000
C     2.498000000    -3.990000000     1.380000000
C     2.001000000    -4.419000000     2.619000000
H     2.316000000    -3.858000000     3.494000000
C     2.169000000    -4.776000000     0.226000000
H     2.527000000    -4.457000000    -0.750000000
C     1.321000000    -5.896000000     0.435000000
O     0.759000000    -6.529000000    -0.663000000
C     0.799000000    -6.318000000     1.684000000
H     0.137000000    -7.175000000     1.771000000
C     1.240000000    -5.552000000     2.762000000
O     0.920000000    -5.963000000     4.046000000
C     0.250000000    -5.097000000     4.950000000
C    -0.723000000    -4.217000000     4.528000000
H    -0.893000000    -4.064000000     3.466000000
C     0.387000000    -5.397000000     6.318000000
H     1.146000000    -6.070000000     6.707000000
C    -0.520000000    -4.790000000     7.229000000
H    -0.366000000    -5.016000000     8.281000000
C    -1.462000000    -3.825000000     6.802000000
H    -2.217000000    -3.479000000     7.504000000
C    -1.487000000    -3.510000000     5.449000000
O    -2.406000000    -2.621000000     5.067000000
C    -2.291000000    -1.271000000     5.005000000
C    -3.484000000    -0.535000000     5.027000000
H    -4.464000000    -0.995000000     5.134000000
C    -3.445000000     0.859000000     4.811000000
O    -4.622000000     1.552000000     4.949000000
C    -5.073000000     2.579000000     4.095000000
C    -5.250000000     2.420000000     2.698000000
H    -4.786000000     1.605000000     2.148000000
C    -5.715000000     3.646000000     4.661000000
H    -5.591000000     3.801000000     5.730000000
C    -6.276000000     4.666000000     3.859000000
H    -6.523000000     5.627000000     4.302000000
C    -6.438000000     4.543000000     2.498000000
H    -6.806000000     5.377000000     1.905000000
C    -5.835000000     3.411000000     1.911000000
O    -6.113000000     3.273000000     0.542000000
C    -5.161000000     2.961000000    -0.381000000
C    -5.539000000     2.333000000    -1.545000000
H    -6.593000000     2.071000000    -1.570000000
C    -4.566000000     2.084000000    -2.517000000
O    -4.977000000     1.529000000    -3.738000000
C    -4.149000000     1.585000000    -4.883000000
C    -3.587000000     0.447000000    -5.474000000
H    -3.599000000    -0.493000000    -4.928000000
C    -3.995000000     2.811000000    -5.515000000
H    -4.492000000     3.683000000    -5.098000000
C    -3.278000000     2.862000000    -6.706000000
H    -3.310000000     3.793000000    -7.267000000
C    -2.688000000     1.720000000    -7.282000000
H    -2.218000000     1.805000000    -8.259000000
C    -2.764000000     0.542000000    -6.596000000
O    -2.120000000    -0.592000000    -6.997000000
C    -1.060000000    -1.190000000    -6.268000000
C    -1.031000000    -2.590000000    -6.168000000
H    -1.702000000    -3.257000000    -6.703000000
C    -0.162000000    -3.134000000    -5.255000000
O    -0.175000000    -4.508000000    -5.085000000
C     0.641000000    -5.246000000    -4.194000000
C     1.914000000    -5.622000000    -4.635000000
H     2.189000000    -5.446000000    -5.672000000
C     2.659000000    -6.519000000    -3.818000000
H     3.599000000    -6.945000000    -4.158000000
C     2.228000000    -6.898000000    -2.537000000
H     2.859000000    -7.569000000    -1.960000000
C     1.076000000    -6.298000000    -1.979000000
C     0.292000000    -5.483000000    -2.829000000
H    -0.713000000    -5.251000000    -2.486000000
C    -0.618000000    -2.122000000     0.912000000
H    -0.685000000    -2.756000000     1.793000000
C     0.159000000    -0.991000000     1.014000000
H     0.677000000    -0.689000000     1.921000000
C     0.215000000    -0.136000000    -0.072000000
H     0.865000000     0.749000000     0.043000000
C    -0.487000000    -0.460000000    -1.245000000
H    -0.489000000     0.159000000    -2.138000000
C    -1.253000000    -1.638000000    -1.372000000
H    -1.961000000    -1.894000000    -2.156000000
C    -1.236000000    -2.542000000    -0.278000000
C    -2.073000000    -3.718000000    -0.393000000
O    -2.647000000    -4.097000000    -1.442000000
O    -2.297000000    -4.271000000     0.672000000
O    -3.022000000    -6.760000000     0.966000000
H    -2.712000000    -5.892000000     0.709000000
H    -2.397000000    -7.366000000     0.567000000
O    -1.406000000    -8.319000000    -5.125000000
H    -1.003000000    -7.485000000    -5.364000000
H    -2.233000000    -8.075000000    -4.708000000
O    -7.175000000    -6.643000000    -4.111000000
H    -6.803000000    -6.237000000    -3.328000000
H    -7.198000000    -5.938000000    -4.758000000
O    -5.521000000    -7.264000000    -0.327000000
H    -5.313000000    -6.405000000    -0.696000000
H    -4.811000000    -7.437000000     0.290000000
O    -4.394000000    -8.320000000    -4.333000000
H    -4.001000000    -7.731000000    -3.689000000
H    -5.266000000    -7.956000000    -4.490000000
O    -4.017000000    -0.595000000     0.814000000
H    -3.131000000    -0.232000000     0.800000000
H    -4.202000000    -0.811000000    -0.100000000
O    -4.810000000    -5.283000000     4.697000000
H    -4.904000000    -4.641000000     3.993000000
H    -5.072000000    -4.810000000     5.487000000
O    -4.252000000    -3.406000000    -6.461000000
H    -4.990000000    -2.852000000    -6.208000000
H    -3.970000000    -3.817000000    -5.643000000
O    -6.711000000    -0.441000000     1.190000000
H    -5.788000000    -0.233000000     1.331000000
H    -6.728000000    -0.893000000     0.346000000
O    -7.377000000    -3.628000000     0.715000000
H    -7.422000000    -2.821000000     0.202000000
H    -6.456000000    -3.701000000     0.966000000
O    -3.075000000    -6.517000000    -2.420000000
H    -2.827000000    -7.082000000    -1.689000000
H    -2.753000000    -5.650000000    -2.173000000
O    -3.938000000    -7.464000000     3.595000000
H    -3.817000000    -7.161000000     2.695000000
H    -4.248000000    -6.693000000     4.069000000
O    -6.257000000    -3.284000000    -3.213000000
H    -6.780000000    -2.799000000    -3.851000000
H    -5.571000000    -3.702000000    -3.733000000
O    -1.900000000    -8.801000000    -0.595000000
H    -2.275000000    -9.623000000    -0.280000000
H    -0.955000000    -8.954000000    -0.595000000
O    -3.662000000    -4.264000000    -3.915000000
H    -3.442000000    -3.789000000    -3.114000000
H    -3.658000000    -5.185000000    -3.656000000
O    -0.826000000    -8.875000000     3.407000000
H    -1.163000000    -8.029000000     3.702000000
H    -1.589000000    -9.323000000     3.042000000
O    -4.827000000    -3.618000000     1.669000000
H    -4.584000000    -2.707000000     1.833000000
H    -4.038000000    -4.014000000     1.297000000
O    -6.897000000    -1.458000000    -1.266000000
H    -6.563000000    -2.066000000    -1.925000000
H    -7.342000000    -0.778000000    -1.771000000
O    -5.247000000    -4.618000000    -1.228000000
H    -4.310000000    -4.440000000    -1.144000000
H    -5.569000000    -3.936000000    -1.817000000
