215
-1448.89143
C    -2.602000000     1.512000000     4.134000000
H    -2.846000000     2.327000000     3.457000000
C    -1.205000000     1.222000000     4.222000000
C    -0.924000000     0.086000000     4.947000000
H     0.133000000    -0.138000000     5.060000000
C    -0.175000000     2.016000000     3.514000000
O    -0.403000000     3.433000000     3.501000000
H    -0.084000000     1.748000000     2.452000000
O     1.094000000     1.903000000     4.146000000
C     2.235000000     1.752000000     3.402000000
C     2.804000000     0.487000000     3.399000000
H     2.356000000    -0.344000000     3.937000000
C     3.863000000     0.287000000     2.479000000
O     4.219000000    -1.033000000     2.217000000
C     4.439000000     1.323000000     1.666000000
C     5.481000000     1.086000000     0.666000000
H     6.067000000     1.995000000     0.516000000
C     4.892000000     0.590000000    -0.620000000
C     4.467000000     1.424000000    -1.615000000
H     4.724000000     2.478000000    -1.550000000
H     6.133000000     0.250000000     0.928000000
C     3.912000000     2.579000000     1.859000000
H     4.266000000     3.470000000     1.346000000
C     2.770000000     2.764000000     2.692000000
C     2.185000000     4.183000000     2.789000000
H     2.945000000     4.941000000     2.586000000
H     1.833000000     4.435000000     3.792000000
C     1.008000000     4.339000000     1.822000000
C     1.181000000     4.779000000     0.521000000
H     2.181000000     5.067000000     0.210000000
C    -0.258000000     4.115000000     2.343000000
C    -1.401000000     4.291000000     1.573000000
H    -2.337000000     4.099000000     2.090000000
C    -1.248000000     4.556000000     0.257000000
O    -2.319000000     4.497000000    -0.632000000
C    -2.384000000     3.263000000    -1.394000000
C    -3.796000000     2.629000000    -1.440000000
C    -4.192000000     1.797000000    -2.441000000
H    -3.524000000     1.618000000    -3.280000000
C    -4.799000000     3.009000000    -0.519000000
H    -4.559000000     3.780000000     0.209000000
O    -1.933000000     3.572000000    -2.705000000
H    -1.739000000     2.506000000    -0.923000000
C     0.003000000     4.815000000    -0.302000000
C     0.208000000     5.205000000    -1.742000000
H     1.037000000     5.913000000    -1.796000000
H    -0.749000000     5.596000000    -2.095000000
C     0.454000000     3.960000000    -2.579000000
C     1.743000000     3.598000000    -3.003000000
H     2.642000000     4.042000000    -2.582000000
C    -0.655000000     3.240000000    -3.094000000
C    -0.397000000     2.076000000    -3.777000000
H    -1.295000000     1.502000000    -3.992000000
C     0.876000000     1.702000000    -4.128000000
O     1.009000000     0.447000000    -4.707000000
C     1.464000000    -0.633000000    -3.866000000
C     0.745000000    -1.937000000    -4.338000000
C    -0.561000000    -1.807000000    -4.865000000
H    -0.997000000    -0.823000000    -5.012000000
C     1.282000000    -3.205000000    -4.167000000
H     2.261000000    -3.329000000    -3.712000000
O     2.882000000    -0.840000000    -3.992000000
H     1.193000000    -0.375000000    -2.831000000
C     1.970000000     2.446000000    -3.724000000
C     3.404000000     1.964000000    -3.973000000
H     4.059000000     2.828000000    -4.102000000
H     3.571000000     1.482000000    -4.938000000
C     3.929000000     1.037000000    -2.843000000
C     3.687000000    -0.337000000    -3.022000000
C     4.095000000    -1.199000000    -2.021000000
H     3.856000000    -2.250000000    -2.156000000
C     4.636000000    -0.775000000    -0.880000000
O     4.710000000    -1.805000000     0.044000000
C     3.732000000    -1.792000000     1.124000000
H     2.826000000    -1.235000000     0.843000000
C     3.372000000    -3.174000000     1.618000000
C     2.704000000    -3.340000000     2.858000000
H     2.585000000    -2.508000000     3.547000000
C     3.337000000    -4.222000000     0.673000000
H     3.734000000    -3.899000000    -0.285000000
C     2.871000000    -5.473000000     1.066000000
O     2.886000000    -6.500000000     0.155000000
C     2.254000000    -5.650000000     2.272000000
H     1.910000000    -6.625000000     2.605000000
C     2.213000000    -4.573000000     3.192000000
O     1.684000000    -4.856000000     4.433000000
C     1.293000000    -3.965000000     5.345000000
C     0.070000000    -3.325000000     5.288000000
H    -0.587000000    -3.559000000     4.454000000
C     2.045000000    -3.882000000     6.427000000
H     2.952000000    -4.478000000     6.473000000
C     1.635000000    -3.142000000     7.544000000
H     2.075000000    -3.274000000     8.529000000
C     0.489000000    -2.370000000     7.431000000
H     0.300000000    -1.704000000     8.269000000
C    -0.300000000    -2.436000000     6.283000000
O    -1.521000000    -1.852000000     6.291000000
C    -1.848000000    -0.740000000     5.618000000
C    -3.184000000    -0.364000000     5.532000000
H    -3.937000000    -0.937000000     6.068000000
C    -3.572000000     0.793000000     4.765000000
O    -4.937000000     0.947000000     4.609000000
C    -5.491000000     2.023000000     3.873000000
C    -5.949000000     1.816000000     2.564000000
H    -5.880000000     0.847000000     2.077000000
C    -5.709000000     3.327000000     4.484000000
H    -5.534000000     3.556000000     5.532000000
C    -6.335000000     4.354000000     3.814000000
H    -6.646000000     5.274000000     4.302000000
C    -6.725000000     4.115000000     2.477000000
H    -7.119000000     4.979000000     1.948000000
C    -6.562000000     2.905000000     1.868000000
O    -6.891000000     2.801000000     0.542000000
C    -6.066000000     2.404000000    -0.447000000
C    -6.314000000     1.434000000    -1.424000000
H    -7.229000000     0.853000000    -1.499000000
C    -5.432000000     1.161000000    -2.430000000
O    -5.752000000     0.322000000    -3.507000000
C    -4.947000000    -0.022000000    -4.579000000
C    -4.184000000    -1.187000000    -4.546000000
H    -4.209000000    -1.787000000    -3.640000000
C    -4.776000000     0.838000000    -5.690000000
H    -5.391000000     1.731000000    -5.627000000
C    -3.814000000     0.646000000    -6.663000000
H    -3.731000000     1.364000000    -7.474000000
C    -3.136000000    -0.558000000    -6.677000000
H    -2.550000000    -0.732000000    -7.575000000
C    -3.310000000    -1.495000000    -5.574000000
O    -2.673000000    -2.741000000    -5.627000000
C    -1.326000000    -2.974000000    -5.094000000
C    -0.713000000    -4.185000000    -4.974000000
H    -1.245000000    -5.055000000    -5.351000000
C     0.548000000    -4.324000000    -4.398000000
O     1.115000000    -5.601000000    -4.239000000
C     2.122000000    -5.898000000    -3.392000000
C     3.289000000    -6.473000000    -3.942000000
H     3.277000000    -6.539000000    -5.027000000
C     4.347000000    -6.903000000    -3.163000000
H     5.268000000    -7.238000000    -3.635000000
C     4.139000000    -6.936000000    -1.782000000
H     4.887000000    -7.454000000    -1.188000000
C     2.983000000    -6.420000000    -1.225000000
C     1.994000000    -5.860000000    -1.981000000
H     1.088000000    -5.456000000    -1.534000000
C    -0.625000000    -2.767000000     0.755000000
H    -0.460000000    -3.542000000     1.498000000
C     0.053000000    -1.564000000     0.831000000
H     0.774000000    -1.309000000     1.604000000
C    -0.064000000    -0.632000000    -0.199000000
H     0.552000000     0.174000000    -0.182000000
C    -0.951000000    -0.842000000    -1.241000000
H    -0.955000000    -0.137000000    -2.069000000
C    -1.673000000    -2.031000000    -1.291000000
H    -2.223000000    -2.446000000    -2.132000000
C    -1.482000000    -2.992000000    -0.300000000
C    -2.311000000    -4.208000000    -0.380000000
O    -3.071000000    -4.415000000    -1.262000000
O    -1.995000000    -5.203000000     0.314000000
O    -1.065000000    -7.400000000    -1.127000000
H    -1.415000000    -6.639000000    -0.663000000
H    -1.283000000    -7.241000000    -2.046000000
O    -6.798000000    -3.327000000    -3.238000000
H    -6.857000000    -2.657000000    -3.919000000
H    -6.781000000    -2.834000000    -2.418000000
O    -3.355000000    -0.929000000     0.971000000
H    -3.705000000    -1.461000000     1.686000000
H    -2.517000000    -1.337000000     0.756000000
O    -6.730000000    -6.523000000    -1.332000000
H    -5.779000000    -6.437000000    -1.255000000
H    -7.079000000    -5.812000000    -0.796000000
O    -1.765000000    -9.263000000     1.277000000
H    -1.801000000    -8.828000000     2.129000000
H    -0.905000000    -9.032000000     0.927000000
O    -7.732000000    -4.858000000     0.415000000
H    -8.418000000    -5.401000000     0.805000000
H    -8.067000000    -3.964000000     0.482000000
O    -4.874000000    -5.636000000     1.537000000
H    -5.714000000    -5.297000000     1.227000000
H    -4.685000000    -6.375000000     0.959000000
O    -4.029000000    -3.094000000     2.432000000
H    -3.946000000    -3.931000000     1.975000000
H    -4.358000000    -3.326000000     3.300000000
O    -6.441000000    -1.201000000     3.059000000
H    -5.972000000    -0.852000000     3.817000000
H    -6.033000000    -2.051000000     2.895000000
O    -2.543000000    -8.722000000    -4.274000000
H    -3.133000000    -8.778000000    -5.026000000
H    -2.731000000    -7.867000000    -3.886000000
O    -7.820000000    -1.868000000    -1.199000000
H    -8.276000000    -1.930000000    -0.360000000
H    -6.892000000    -1.935000000    -0.974000000
O    -1.534000000    -6.604000000     5.787000000
H    -2.075000000    -6.578000000     4.999000000
H    -0.792000000    -7.161000000     5.551000000
O    -5.699000000    -5.947000000    -4.229000000
H    -5.806000000    -6.528000000    -3.476000000
H    -6.032000000    -5.101000000    -3.928000000
O     1.083000000    -8.977000000    -0.447000000
H     0.389000000    -8.392000000    -0.750000000
H     1.892000000    -8.491000000    -0.606000000
O    -3.032000000    -6.080000000    -3.215000000
H    -2.857000000    -5.735000000    -2.339000000
H    -3.611000000    -5.431000000    -3.616000000
O    -2.657000000    -6.377000000     2.996000000
H    -2.110000000    -5.987000000     2.314000000
H    -3.551000000    -6.289000000     2.666000000
O    -5.093000000    -2.482000000    -0.953000000
H    -4.596000000    -1.682000000    -0.784000000
H    -4.436000000    -3.178000000    -0.955000000
O    -4.033000000    -6.962000000    -0.712000000
H    -3.653000000    -6.084000000    -0.687000000
H    -3.295000000    -7.537000000    -0.914000000
O    -6.144000000    -9.455000000    -0.596000000
H    -5.968000000    -8.579000000    -0.940000000
H    -5.281000000    -9.805000000    -0.377000000
