215
-1467.85914
C    -2.394000000    -2.979000000    -3.167000000
H    -2.234000000    -2.167000000    -3.872000000
C    -2.980000000    -2.563000000    -1.888000000
C    -3.090000000    -3.426000000    -0.795000000
H    -3.620000000    -3.157000000     0.115000000
C    -3.486000000    -1.106000000    -1.726000000
O    -3.899000000    -0.491000000    -2.983000000
H    -2.659000000    -0.626000000    -1.181000000
O    -4.644000000    -1.061000000    -0.779000000
C    -4.518000000    -0.092000000     0.190000000
C    -4.151000000    -0.543000000     1.425000000
H    -3.901000000    -1.583000000     1.616000000
C    -3.866000000     0.381000000     2.404000000
O    -3.445000000    -0.126000000     3.650000000
C    -3.965000000     1.728000000     2.113000000
C    -3.670000000     2.707000000     3.184000000
H    -4.219000000     3.637000000     3.017000000
C    -2.159000000     2.932000000     3.189000000
C    -1.527000000     3.913000000     2.484000000
H    -2.184000000     4.488000000     1.837000000
H    -4.061000000     2.306000000     4.121000000
C    -4.430000000     2.200000000     0.874000000
H    -4.578000000     3.267000000     0.733000000
C    -4.664000000     1.257000000    -0.134000000
C    -5.074000000     1.698000000    -1.584000000
H    -5.618000000     2.627000000    -1.401000000
H    -5.904000000     1.111000000    -1.983000000
C    -3.857000000     1.874000000    -2.485000000
C    -3.175000000     3.097000000    -2.564000000
H    -3.554000000     3.987000000    -2.068000000
C    -3.354000000     0.809000000    -3.164000000
C    -2.295000000     0.948000000    -4.027000000
H    -1.929000000     0.094000000    -4.592000000
C    -1.540000000     2.129000000    -4.059000000
O    -0.391000000     2.092000000    -4.819000000
C     0.755000000     1.876000000    -4.005000000
C     1.690000000     0.944000000    -4.761000000
C     2.993000000     0.926000000    -4.375000000
H     3.288000000     1.599000000    -3.574000000
C     1.267000000     0.056000000    -5.763000000
H     0.256000000     0.003000000    -6.159000000
O     1.336000000     3.146000000    -3.674000000
H     0.363000000     1.432000000    -3.078000000
C    -1.973000000     3.227000000    -3.334000000
C    -1.145000000     4.505000000    -3.244000000
H    -1.777000000     5.347000000    -2.953000000
H    -0.764000000     4.703000000    -4.248000000
C    -0.081000000     4.450000000    -2.140000000
C    -0.322000000     4.949000000    -0.885000000
H    -1.197000000     5.556000000    -0.665000000
C     1.114000000     3.669000000    -2.351000000
C     2.006000000     3.459000000    -1.351000000
H     2.857000000     2.837000000    -1.618000000
C     1.848000000     4.029000000    -0.122000000
O     2.857000000     3.762000000     0.794000000
C     2.608000000     2.732000000     1.812000000
C     3.818000000     1.838000000     2.068000000
C     4.732000000     1.568000000     1.044000000
H     4.524000000     1.917000000     0.036000000
C     4.016000000     1.134000000     3.287000000
H     3.358000000     1.314000000     4.133000000
O     2.078000000     3.313000000     3.017000000
H     1.825000000     2.102000000     1.366000000
C     0.611000000     4.694000000     0.112000000
C     0.412000000     5.253000000     1.530000000
H    -0.259000000     6.103000000     1.390000000
H     1.323000000     5.720000000     1.910000000
C    -0.151000000     4.147000000     2.447000000
C     0.703000000     3.331000000     3.107000000
C     0.128000000     2.391000000     3.916000000
H     0.727000000     1.825000000     4.625000000
C    -1.236000000     2.138000000     3.929000000
O    -1.683000000     1.065000000     4.657000000
C    -2.040000000    -0.081000000     3.906000000
H    -1.554000000    -0.087000000     2.919000000
C    -1.558000000    -1.354000000     4.649000000
C    -2.247000000    -2.536000000     4.528000000
H    -3.150000000    -2.527000000     3.923000000
C    -0.442000000    -1.286000000     5.469000000
H     0.115000000    -0.356000000     5.548000000
C     0.089000000    -2.469000000     6.074000000
O     1.204000000    -2.372000000     6.856000000
C    -0.578000000    -3.712000000     5.877000000
H    -0.107000000    -4.616000000     6.255000000
C    -1.718000000    -3.734000000     5.030000000
O    -2.291000000    -4.957000000     4.807000000
C    -3.004000000    -5.267000000     3.666000000
C    -2.414000000    -5.107000000     2.348000000
H    -1.484000000    -4.574000000     2.170000000
C    -4.165000000    -5.854000000     3.880000000
H    -4.491000000    -5.881000000     4.917000000
C    -4.915000000    -6.238000000     2.787000000
H    -5.857000000    -6.737000000     3.001000000
C    -4.361000000    -6.293000000     1.501000000
H    -4.908000000    -6.794000000     0.707000000
C    -3.178000000    -5.645000000     1.273000000
O    -2.678000000    -5.766000000     0.021000000
C    -2.510000000    -4.721000000    -0.929000000
C    -1.797000000    -5.048000000    -2.063000000
H    -1.300000000    -6.015000000    -2.095000000
C    -1.734000000    -4.149000000    -3.202000000
O    -0.985000000    -4.540000000    -4.266000000
C    -0.874000000    -3.899000000    -5.517000000
C     0.309000000    -3.227000000    -5.815000000
H     1.177000000    -3.330000000    -5.170000000
C    -1.941000000    -3.812000000    -6.458000000
H    -2.797000000    -4.465000000    -6.304000000
C    -1.831000000    -3.099000000    -7.671000000
H    -2.634000000    -3.012000000    -8.399000000
C    -0.602000000    -2.548000000    -7.964000000
H    -0.368000000    -2.044000000    -8.898000000
C     0.429000000    -2.565000000    -7.000000000
O     1.629000000    -1.866000000    -7.159000000
C     2.100000000    -0.846000000    -6.299000000
C     3.412000000    -0.970000000    -5.811000000
H     4.130000000    -1.684000000    -6.207000000
C     3.889000000    -0.077000000    -4.859000000
O     5.224000000    -0.149000000    -4.409000000
C     5.685000000     0.699000000    -3.426000000
C     5.755000000     0.214000000    -2.080000000
H     5.435000000    -0.803000000    -1.869000000
C     6.220000000     1.954000000    -3.788000000
H     6.320000000     2.247000000    -4.829000000
C     6.848000000     2.700000000    -2.749000000
H     7.359000000     3.622000000    -3.012000000
C     6.928000000     2.172000000    -1.469000000
H     7.371000000     2.786000000    -0.689000000
C     6.403000000     0.950000000    -1.097000000
O     6.602000000     0.341000000     0.152000000
C     5.735000000     0.623000000     1.162000000
C     5.960000000    -0.074000000     2.340000000
H     6.720000000    -0.828000000     2.532000000
C     5.039000000     0.157000000     3.395000000
O     5.035000000    -0.702000000     4.517000000
C     4.143000000    -0.654000000     5.623000000
C     4.139000000     0.545000000     6.355000000
H     4.792000000     1.373000000     6.091000000
C     3.133000000     0.739000000     7.323000000
H     3.119000000     1.695000000     7.841000000
C     2.129000000    -0.205000000     7.462000000
H     1.332000000    -0.061000000     8.187000000
C     2.182000000    -1.425000000     6.735000000
C     3.228000000    -1.633000000     5.833000000
H     3.286000000    -2.527000000     5.217000000
C     2.810000000    -1.356000000     0.009000000
H     3.602000000    -1.592000000     0.714000000
C     1.797000000    -0.518000000     0.470000000
H     1.923000000    -0.099000000     1.465000000
C     0.781000000    -0.246000000    -0.431000000
H     0.129000000     0.613000000    -0.118000000
C     0.662000000    -0.933000000    -1.639000000
H    -0.213000000    -0.737000000    -2.253000000
C     1.627000000    -1.840000000    -2.012000000
H     1.512000000    -2.296000000    -2.992000000
C     2.751000000    -2.005000000    -1.230000000
C     3.797000000    -3.010000000    -1.780000000
O     3.584000000    -3.498000000    -2.876000000
O     4.866000000    -3.149000000    -1.210000000
O     6.710000000    -7.084000000    -4.575000000
H     6.430000000    -7.489000000    -3.754000000
H     6.518000000    -6.153000000    -4.460000000
O     4.922000000    -3.092000000     2.606000000
H     5.648000000    -3.174000000     1.987000000
H     4.397000000    -2.368000000     2.264000000
O     8.834000000    -5.862000000    -0.381000000
H     8.258000000    -6.621000000    -0.476000000
H     8.663000000    -5.333000000    -1.160000000
O     7.386000000    -3.913000000    -2.151000000
H     6.553000000    -3.652000000    -1.758000000
H     7.169000000    -4.114000000    -3.061000000
O     8.565000000    -4.125000000     1.977000000
H     7.830000000    -3.752000000     1.491000000
H     9.117000000    -4.528000000     1.306000000
O     6.453000000    -6.125000000     1.252000000
H     7.375000000    -5.886000000     1.157000000
H     6.417000000    -7.047000000     0.999000000
O     3.523000000    -8.856000000     0.151000000
H     4.194000000    -9.316000000     0.654000000
H     3.400000000    -8.028000000     0.616000000
O     2.127000000    -6.840000000    -2.167000000
H     2.959000000    -6.867000000    -1.695000000
H     1.567000000    -6.278000000    -1.633000000
O     3.589000000    -6.262000000     1.920000000
H     2.695000000    -5.922000000     1.884000000
H     4.118000000    -5.592000000     1.489000000
O     9.609000000    -2.328000000    -2.159000000
H     9.571000000    -1.933000000    -1.288000000
H     8.747000000    -2.726000000    -2.280000000
O     5.016000000    -6.283000000    -1.502000000
H     4.897000000    -5.333000000    -1.520000000
H     5.768000000    -6.419000000    -0.925000000
O     4.789000000    -8.785000000    -2.782000000
H     4.893000000    -7.849000000    -2.611000000
H     4.138000000    -9.074000000    -2.143000000
O     0.788000000    -6.812000000     0.648000000
H     0.005000000    -7.348000000     0.529000000
H     0.812000000    -6.628000000     1.587000000
O     3.691000000    -6.515000000    -6.847000000
H     3.216000000    -7.332000000    -6.998000000
H     3.352000000    -6.192000000    -6.012000000
O     7.701000000    -1.982000000    -5.939000000
H     7.154000000    -2.743000000    -5.746000000
H     7.926000000    -2.077000000    -6.864000000
O     2.787000000    -5.585000000    -4.586000000
H     2.418000000    -6.000000000    -3.807000000
H     3.124000000    -4.745000000    -4.274000000
O     5.206000000    -4.223000000    -6.806000000
H     4.517000000    -4.859000000    -6.997000000
H     5.391000000    -3.810000000    -7.650000000
O     6.782000000    -2.701000000     0.560000000
H     6.062000000    -2.777000000    -0.065000000
H     7.156000000    -1.836000000     0.392000000
O     5.746000000    -4.582000000    -4.209000000
H     5.129000000    -4.156000000    -3.614000000
H     5.376000000    -4.439000000    -5.081000000
