215
-1426.53870
C    -3.211000000     1.925000000     3.374000000
H    -3.542000000     2.630000000     2.616000000
C    -1.923000000     1.906000000     3.835000000
C    -1.514000000     0.991000000     4.770000000
H    -0.477000000     1.089000000     5.079000000
C    -0.895000000     2.723000000     3.093000000
O    -1.463000000     3.961000000     2.594000000
H    -0.560000000     2.039000000     2.300000000
O     0.234000000     3.098000000     3.894000000
C     1.472000000     2.919000000     3.227000000
C     2.155000000     1.765000000     3.509000000
H     1.598000000     1.018000000     4.069000000
C     3.385000000     1.524000000     2.876000000
O     4.077000000     0.330000000     3.140000000
C     3.875000000     2.363000000     1.934000000
C     5.088000000     2.040000000     1.150000000
H     5.551000000     2.994000000     0.890000000
C     4.759000000     1.115000000    -0.063000000
C     4.522000000     1.748000000    -1.302000000
H     4.574000000     2.834000000    -1.331000000
H     5.808000000     1.542000000     1.803000000
C     3.186000000     3.548000000     1.710000000
H     3.689000000     4.317000000     1.129000000
C     2.009000000     3.853000000     2.399000000
C     1.185000000     5.040000000     1.966000000
H     1.906000000     5.761000000     1.575000000
H     0.792000000     5.595000000     2.819000000
C     0.155000000     4.842000000     0.910000000
C     0.508000000     5.022000000    -0.438000000
H     1.511000000     5.348000000    -0.702000000
C    -1.126000000     4.367000000     1.275000000
C    -2.010000000     4.035000000     0.285000000
H    -2.988000000     3.620000000     0.513000000
C    -1.652000000     4.172000000    -1.033000000
O    -2.544000000     3.640000000    -1.964000000
C    -2.334000000     2.288000000    -2.504000000
C    -3.661000000     1.476000000    -2.686000000
C    -3.858000000     0.678000000    -3.844000000
H    -3.085000000     0.457000000    -4.575000000
C    -4.675000000     1.436000000    -1.741000000
H    -4.435000000     1.821000000    -0.754000000
O    -1.736000000     2.482000000    -3.761000000
H    -1.571000000     1.716000000    -1.956000000
C    -0.412000000     4.656000000    -1.387000000
C     0.004000000     4.746000000    -2.892000000
H     0.758000000     5.535000000    -2.930000000
H    -0.883000000     5.061000000    -3.446000000
C     0.503000000     3.410000000    -3.418000000
C     1.868000000     3.131000000    -3.435000000
H     2.607000000     3.862000000    -3.117000000
C    -0.390000000     2.435000000    -3.865000000
C     0.059000000     1.245000000    -4.423000000
H    -0.675000000     0.509000000    -4.742000000
C     1.371000000     0.905000000    -4.279000000
O     1.730000000    -0.368000000    -4.637000000
C     2.014000000    -1.140000000    -3.473000000
C     1.263000000    -2.548000000    -3.501000000
C    -0.068000000    -2.609000000    -3.899000000
H    -0.701000000    -1.743000000    -4.070000000
C     1.920000000    -3.691000000    -2.986000000
H     2.895000000    -3.593000000    -2.515000000
O     3.416000000    -1.224000000    -3.226000000
H     1.470000000    -0.701000000    -2.624000000
C     2.320000000     1.875000000    -3.906000000
C     3.841000000     1.514000000    -3.799000000
H     4.406000000     2.448000000    -3.836000000
H     4.076000000     0.857000000    -4.639000000
C     4.178000000     0.957000000    -2.444000000
C     4.050000000    -0.458000000    -2.239000000
C     4.347000000    -1.057000000    -1.021000000
H     4.187000000    -2.132000000    -1.005000000
C     4.709000000    -0.318000000     0.096000000
O     4.803000000    -0.940000000     1.327000000
C     3.728000000    -0.799000000     2.330000000
H     2.845000000    -0.511000000     1.741000000
C     3.357000000    -2.171000000     2.981000000
C     2.993000000    -2.269000000     4.326000000
H     3.151000000    -1.464000000     5.038000000
C     3.159000000    -3.314000000     2.208000000
H     3.221000000    -3.218000000     1.127000000
C     2.656000000    -4.519000000     2.728000000
O     2.328000000    -5.626000000     1.932000000
C     2.331000000    -4.601000000     4.070000000
H     1.784000000    -5.485000000     4.388000000
C     2.458000000    -3.470000000     4.857000000
O     1.789000000    -3.420000000     6.072000000
C     1.212000000    -2.290000000     6.520000000
C    -0.169000000    -2.019000000     6.296000000
H    -0.722000000    -2.705000000     5.660000000
C     1.947000000    -1.298000000     7.233000000
H     3.029000000    -1.275000000     7.327000000
C     1.298000000    -0.128000000     7.701000000
H     1.887000000     0.644000000     8.189000000
C    -0.050000000     0.016000000     7.599000000
H    -0.592000000     0.903000000     7.916000000
C    -0.758000000    -0.936000000     6.940000000
O    -2.049000000    -0.672000000     6.406000000
C    -2.413000000     0.141000000     5.429000000
C    -3.707000000     0.097000000     4.968000000
H    -4.476000000    -0.535000000     5.405000000
C    -4.100000000     1.008000000     3.953000000
O    -5.350000000     0.730000000     3.389000000
C    -5.946000000     1.478000000     2.408000000
C    -6.150000000     0.862000000     1.180000000
H    -5.695000000    -0.100000000     0.954000000
C    -6.396000000     2.815000000     2.552000000
H    -6.140000000     3.321000000     3.479000000
C    -7.103000000     3.428000000     1.560000000
H    -7.446000000     4.454000000     1.666000000
C    -7.262000000     2.784000000     0.309000000
H    -7.622000000     3.326000000    -0.562000000
C    -6.774000000     1.500000000     0.136000000
O    -6.943000000     0.902000000    -1.132000000
C    -5.878000000     0.801000000    -2.026000000
C    -6.068000000     0.162000000    -3.252000000
H    -6.997000000    -0.314000000    -3.555000000
C    -5.005000000    -0.001000000    -4.074000000
O    -5.231000000    -0.713000000    -5.257000000
C    -4.222000000    -1.581000000    -5.708000000
C    -3.631000000    -2.469000000    -4.802000000
H    -4.006000000    -2.580000000    -3.788000000
C    -3.721000000    -1.486000000    -6.991000000
H    -4.174000000    -0.693000000    -7.582000000
C    -2.621000000    -2.302000000    -7.476000000
H    -2.138000000    -2.249000000    -8.448000000
C    -2.078000000    -3.217000000    -6.547000000
H    -1.176000000    -3.762000000    -6.815000000
C    -2.596000000    -3.265000000    -5.203000000
O    -1.935000000    -4.122000000    -4.309000000
C    -0.737000000    -3.870000000    -3.815000000
C     0.027000000    -5.042000000    -3.581000000
H    -0.472000000    -5.992000000    -3.752000000
C     1.337000000    -4.939000000    -3.060000000
O     2.117000000    -6.071000000    -2.644000000
C     2.974000000    -6.048000000    -1.561000000
C     4.334000000    -6.207000000    -1.666000000
H     4.890000000    -6.401000000    -2.580000000
C     5.066000000    -6.207000000    -0.497000000
H     6.142000000    -6.354000000    -0.553000000
C     4.446000000    -5.964000000     0.745000000
H     5.012000000    -5.856000000     1.666000000
C     3.070000000    -5.845000000     0.766000000
C     2.281000000    -5.961000000    -0.335000000
H     1.213000000    -5.759000000    -0.324000000
C    -0.905000000    -4.399000000     1.697000000
H    -0.471000000    -4.821000000     2.600000000
C    -0.661000000    -3.086000000     1.262000000
H    -0.051000000    -2.489000000     1.936000000
C    -1.134000000    -2.642000000     0.059000000
H    -1.095000000    -1.626000000    -0.189000000
C    -1.899000000    -3.489000000    -0.727000000
H    -2.402000000    -2.956000000    -1.530000000
C    -1.976000000    -4.856000000    -0.389000000
H    -2.343000000    -5.531000000    -1.159000000
C    -1.531000000    -5.267000000     0.803000000
C    -1.627000000    -6.720000000     1.087000000
O    -2.226000000    -7.457000000     0.377000000
O    -1.122000000    -7.130000000     2.096000000
O    -4.558000000    -6.005000000    -3.566000000
H    -5.431000000    -5.963000000    -3.956000000
H    -4.716000000    -6.224000000    -2.647000000
O    -0.735000000    -9.152000000    -3.739000000
H    -0.583000000    -9.299000000    -2.805000000
H    -1.491000000    -8.565000000    -3.769000000
O    -0.792000000    -9.388000000    -1.146000000
H    -1.399000000    -8.863000000    -0.625000000
H    -0.884000000   -10.276000000    -0.801000000
O    -3.109000000    -3.679000000     4.144000000
H    -3.272000000    -3.419000000     3.237000000
H    -3.055000000    -4.634000000     4.114000000
O    -5.771000000    -6.345000000     3.849000000
H    -6.149000000    -5.686000000     4.431000000
H    -6.149000000    -6.152000000     2.991000000
O    -0.556000000   -12.118000000     0.411000000
H    -0.853000000   -11.831000000     1.275000000
H     0.049000000   -12.837000000     0.593000000
O    -6.227000000    -8.823000000     0.845000000
H    -5.493000000    -9.268000000     1.267000000
H    -6.187000000    -9.107000000    -0.068000000
O    -3.891000000    -6.418000000     6.499000000
H    -3.297000000    -6.553000000     5.760000000
H    -3.847000000    -5.478000000     6.673000000
O     1.558000000    -9.090000000     0.966000000
H     1.569000000    -9.513000000     0.108000000
H     0.865000000    -8.434000000     0.902000000
O    -1.901000000    -6.268000000     4.504000000
H    -1.493000000    -6.465000000     3.661000000
H    -1.176000000    -5.986000000     5.061000000
O    -5.067000000    -8.767000000     5.100000000
H    -5.160000000    -7.956000000     4.601000000
H    -5.037000000    -8.485000000     6.014000000
O    -3.550000000   -11.767000000     0.050000000
H    -3.463000000   -10.988000000     0.599000000
H    -2.721000000   -12.233000000     0.163000000
O    -4.768000000    -6.506000000    -0.429000000
H    -3.858000000    -6.795000000    -0.357000000
H    -5.277000000    -7.220000000    -0.046000000
O     2.108000000    -9.840000000    -1.923000000
H     2.222000000   -10.287000000    -2.762000000
H     1.249000000    -9.423000000    -1.989000000
O    -3.381000000    -8.532000000    -3.318000000
H    -3.483000000    -7.872000000    -4.003000000
H    -3.398000000    -8.035000000    -2.500000000
O    -0.182000000    -9.157000000     3.892000000
H    -1.040000000    -8.774000000     4.075000000
H     0.022000000    -8.871000000     3.001000000
O    -5.696000000    -3.960000000    -0.606000000
H    -5.727000000    -3.468000000     0.215000000
H    -5.372000000    -4.824000000    -0.354000000
O     2.619000000    -9.331000000     4.523000000
H     3.079000000    -8.932000000     3.784000000
H     1.796000000    -8.845000000     4.584000000
O    -3.617000000    -9.412000000     1.864000000
H    -3.103000000    -8.721000000     1.446000000
H    -3.182000000    -9.558000000     2.704000000
