215
-1425.06640
C    -3.485000000     1.848000000     3.669000000
H    -3.883000000     2.482000000     2.880000000
C    -2.124000000     1.998000000     3.912000000
C    -1.621000000     1.369000000     5.087000000
H    -0.590000000     1.474000000     5.413000000
C    -1.168000000     2.798000000     3.058000000
O    -1.838000000     3.866000000     2.474000000
H    -0.879000000     2.191000000     2.188000000
O     0.016000000     3.152000000     3.854000000
C     1.244000000     3.017000000     3.135000000
C     2.112000000     1.959000000     3.423000000
H     1.787000000     1.216000000     4.147000000
C     3.296000000     1.778000000     2.720000000
O     4.014000000     0.612000000     2.975000000
C     3.650000000     2.626000000     1.752000000
C     4.930000000     2.358000000     0.966000000
H     5.387000000     3.289000000     0.625000000
C     4.625000000     1.410000000    -0.186000000
C     4.131000000     2.016000000    -1.363000000
H     3.962000000     3.088000000    -1.424000000
H     5.642000000     1.917000000     1.667000000
C     2.805000000     3.725000000     1.438000000
H     3.001000000     4.431000000     0.634000000
C     1.650000000     3.911000000     2.130000000
C     0.712000000     5.045000000     1.728000000
H     1.326000000     5.869000000     1.359000000
H     0.257000000     5.378000000     2.663000000
C    -0.350000000     4.701000000     0.751000000
C    -0.148000000     5.035000000    -0.611000000
H     0.820000000     5.451000000    -0.877000000
C    -1.627000000     4.245000000     1.137000000
C    -2.604000000     4.137000000     0.158000000
H    -3.587000000     3.759000000     0.425000000
C    -2.307000000     4.225000000    -1.175000000
O    -3.096000000     3.520000000    -1.992000000
C    -2.633000000     2.221000000    -2.384000000
C    -3.833000000     1.166000000    -2.370000000
C    -3.885000000     0.214000000    -3.432000000
H    -3.145000000     0.287000000    -4.224000000
C    -4.673000000     0.966000000    -1.281000000
H    -4.772000000     1.767000000    -0.553000000
O    -2.031000000     2.388000000    -3.681000000
H    -1.938000000     1.854000000    -1.615000000
C    -1.086000000     4.720000000    -1.622000000
C    -0.671000000     4.847000000    -3.075000000
H    -0.016000000     5.716000000    -3.166000000
H    -1.578000000     4.846000000    -3.683000000
C     0.094000000     3.584000000    -3.466000000
C     1.492000000     3.464000000    -3.683000000
H     2.172000000     4.296000000    -3.515000000
C    -0.656000000     2.429000000    -3.728000000
C    -0.125000000     1.184000000    -4.025000000
H    -0.721000000     0.306000000    -4.260000000
C     1.237000000     1.114000000    -4.151000000
O     1.876000000    -0.064000000    -4.477000000
C     2.351000000    -1.043000000    -3.538000000
C     1.933000000    -2.490000000    -3.844000000
C     0.794000000    -2.726000000    -4.651000000
H     0.305000000    -1.862000000    -5.095000000
C     2.486000000    -3.577000000    -3.090000000
H     3.374000000    -3.287000000    -2.536000000
O     3.763000000    -0.896000000    -3.428000000
H     1.925000000    -0.848000000    -2.543000000
C     2.112000000     2.167000000    -3.813000000
C     3.660000000     2.030000000    -3.753000000
H     3.945000000     3.085000000    -3.747000000
H     4.026000000     1.521000000    -4.647000000
C     4.004000000     1.273000000    -2.499000000
C     4.136000000    -0.108000000    -2.365000000
C     4.477000000    -0.715000000    -1.166000000
H     4.542000000    -1.800000000    -1.194000000
C     4.704000000     0.033000000    -0.052000000
O     4.862000000    -0.622000000     1.127000000
C     3.839000000    -0.450000000     2.055000000
H     2.911000000    -0.183000000     1.529000000
C     3.477000000    -1.774000000     2.727000000
C     2.337000000    -1.912000000     3.566000000
H     1.779000000    -1.031000000     3.872000000
C     4.027000000    -2.994000000     2.316000000
H     4.910000000    -2.992000000     1.682000000
C     3.512000000    -4.233000000     2.633000000
O     3.951000000    -5.422000000     2.113000000
C     2.523000000    -4.282000000     3.593000000
H     2.059000000    -5.227000000     3.864000000
C     1.887000000    -3.136000000     4.042000000
O     0.739000000    -3.247000000     4.868000000
C     0.555000000    -2.317000000     5.909000000
C    -0.626000000    -1.600000000     5.990000000
H    -1.469000000    -1.941000000     5.396000000
C     1.551000000    -2.159000000     6.847000000
H     2.340000000    -2.906000000     6.817000000
C     1.369000000    -1.215000000     7.888000000
H     2.238000000    -1.111000000     8.532000000
C     0.234000000    -0.427000000     8.006000000
H     0.194000000     0.233000000     8.869000000
C    -0.736000000    -0.629000000     7.026000000
O    -1.918000000     0.063000000     7.068000000
C    -2.435000000     0.555000000     5.913000000
C    -3.787000000     0.455000000     5.641000000
H    -4.373000000    -0.165000000     6.314000000
C    -4.308000000     1.160000000     4.540000000
O    -5.646000000     1.008000000     4.405000000
C    -6.347000000     1.149000000     3.248000000
C    -6.031000000     0.349000000     2.144000000
H    -5.405000000    -0.531000000     2.271000000
C    -7.079000000     2.370000000     3.059000000
H    -7.066000000     3.062000000     3.897000000
C    -7.671000000     2.625000000     1.778000000
H    -8.279000000     3.519000000     1.669000000
C    -7.480000000     1.697000000     0.730000000
H    -7.948000000     1.790000000    -0.247000000
C    -6.620000000     0.569000000     0.875000000
O    -6.406000000    -0.323000000    -0.197000000
C    -5.552000000    -0.079000000    -1.230000000
C    -5.568000000    -1.005000000    -2.274000000
H    -6.343000000    -1.764000000    -2.202000000
C    -4.770000000    -0.837000000    -3.356000000
O    -4.851000000    -1.793000000    -4.322000000
C    -3.811000000    -2.111000000    -5.231000000
C    -2.818000000    -3.059000000    -4.953000000
H    -2.784000000    -3.337000000    -3.903000000
C    -3.869000000    -1.621000000    -6.515000000
H    -4.767000000    -1.083000000    -6.808000000
C    -2.912000000    -2.050000000    -7.362000000
H    -2.921000000    -1.561000000    -8.333000000
C    -1.854000000    -2.865000000    -6.996000000
H    -1.209000000    -3.238000000    -7.787000000
C    -1.860000000    -3.549000000    -5.845000000
O    -0.904000000    -4.377000000    -5.423000000
C     0.286000000    -4.020000000    -4.788000000
C     0.939000000    -5.123000000    -4.126000000
H     0.567000000    -6.144000000    -4.137000000
C     1.983000000    -4.884000000    -3.265000000
O     2.440000000    -5.989000000    -2.479000000
C     3.493000000    -5.856000000    -1.583000000
C     4.762000000    -5.569000000    -2.030000000
H     4.891000000    -5.497000000    -3.107000000
C     5.821000000    -5.461000000    -1.120000000
H     6.846000000    -5.419000000    -1.480000000
C     5.507000000    -5.338000000     0.260000000
H     6.313000000    -5.263000000     0.985000000
C     4.250000000    -5.494000000     0.721000000
C     3.209000000    -5.680000000    -0.191000000
H     2.178000000    -5.682000000     0.151000000
C    -0.741000000    -4.286000000     1.582000000
H    -0.644000000    -4.767000000     2.552000000
C    -0.508000000    -2.924000000     1.406000000
H    -0.301000000    -2.322000000     2.286000000
C    -0.517000000    -2.401000000     0.076000000
H    -0.359000000    -1.379000000    -0.121000000
C    -0.787000000    -3.264000000    -1.019000000
H    -0.784000000    -2.852000000    -2.024000000
C    -0.977000000    -4.613000000    -0.845000000
H    -1.160000000    -5.221000000    -1.727000000
C    -0.958000000    -5.141000000     0.477000000
C    -1.139000000    -6.596000000     0.738000000
O    -1.512000000    -7.304000000    -0.142000000
O    -1.035000000    -6.986000000     1.877000000
O    -4.443000000    -5.498000000    -3.908000000
H    -3.718000000    -5.969000000    -4.317000000
H    -4.285000000    -5.584000000    -2.968000000
O     0.897000000    -9.583000000    -3.095000000
H     0.106000000   -10.102000000    -3.236000000
H     0.776000000    -9.190000000    -2.231000000
O    -0.204000000    -9.592000000     0.776000000
H    -0.488000000    -8.886000000     0.195000000
H    -0.987000000    -9.819000000     1.277000000
O    -2.546000000    -7.173000000    -4.745000000
H    -2.905000000    -7.802000000    -5.371000000
H    -2.197000000    -7.713000000    -4.036000000
O    -5.927000000    -4.434000000     1.691000000
H    -5.323000000    -3.971000000     1.111000000
H    -5.458000000    -5.231000000     1.938000000
O    -1.432000000   -12.194000000     1.481000000
H    -1.608000000   -11.556000000     2.173000000
H    -0.824000000   -12.816000000     1.879000000
O    -5.674000000    -7.271000000     2.368000000
H    -4.871000000    -6.985000000     2.804000000
H    -5.705000000    -8.215000000     2.520000000
O     1.696000000    -7.296000000     2.253000000
H     0.780000000    -7.022000000     2.214000000
H     1.699000000    -8.177000000     1.880000000
O    -3.392000000    -6.268000000     3.453000000
H    -2.515000000    -6.383000000     3.088000000
H    -3.255000000    -6.230000000     4.399000000
O    -1.884000000    -6.500000000     5.736000000
H    -1.567000000    -7.363000000     5.470000000
H    -1.280000000    -6.225000000     6.426000000
O    -1.094000000   -11.324000000     3.966000000
H    -0.648000000   -10.503000000     3.757000000
H    -1.188000000   -11.311000000     4.918000000
O    -5.046000000    -8.895000000    -1.385000000
H    -5.735000000    -8.627000000    -0.777000000
H    -5.440000000    -8.798000000    -2.252000000
O    -5.113000000   -10.150000000     1.187000000
H    -4.197000000   -10.029000000     1.436000000
H    -5.142000000    -9.915000000     0.259000000
O    -4.101000000    -5.448000000    -0.992000000
H    -3.645000000    -5.127000000    -0.214000000
H    -3.774000000    -6.340000000    -1.110000000
O     1.995000000   -10.897000000     1.892000000
H     2.190000000   -11.763000000     1.533000000
H     1.204000000   -10.619000000     1.431000000
O    -2.306000000    -8.844000000    -2.283000000
H    -3.186000000    -8.942000000    -1.920000000
H    -1.836000000    -8.320000000    -1.635000000
O    -0.459000000    -8.663000000     4.386000000
H    -0.592000000    -8.059000000     3.656000000
H     0.478000000    -8.611000000     4.573000000
O    -3.559000000    -3.061000000     0.769000000
H    -3.736000000    -2.129000000     0.896000000
H    -2.617000000    -3.149000000     0.915000000
O    -2.715000000    -9.313000000     2.167000000
H    -2.344000000    -8.438000000     2.057000000
H    -3.092000000    -9.304000000     3.047000000
