215
-1468.96961
C    -2.220000000     2.029000000     4.165000000
H    -2.568000000     2.728000000     3.409000000
C    -0.820000000     1.723000000     4.121000000
C    -0.329000000     0.817000000     5.031000000
H     0.745000000     0.655000000     4.996000000
C     0.091000000     2.588000000     3.290000000
O    -0.440000000     3.908000000     3.089000000
H     0.115000000     2.132000000     2.289000000
O     1.405000000     2.706000000     3.930000000
C     2.517000000     2.427000000     3.202000000
C     3.053000000     1.112000000     3.303000000
H     2.703000000     0.465000000     4.104000000
C     4.032000000     0.671000000     2.416000000
O     4.384000000    -0.698000000     2.437000000
C     4.466000000     1.490000000     1.378000000
C     5.556000000     0.990000000     0.423000000
H     6.172000000     1.814000000     0.055000000
C     4.829000000     0.290000000    -0.802000000
C     4.535000000     1.050000000    -2.005000000
H     4.950000000     2.049000000    -2.117000000
H     6.234000000     0.373000000     1.016000000
C     3.928000000     2.769000000     1.233000000
H     4.365000000     3.414000000     0.475000000
C     2.920000000     3.169000000     2.081000000
C     2.323000000     4.544000000     1.944000000
H     3.077000000     5.262000000     1.616000000
H     2.038000000     4.809000000     2.964000000
C     1.046000000     4.527000000     1.158000000
C     1.188000000     4.721000000    -0.213000000
H     2.134000000     4.867000000    -0.729000000
C    -0.251000000     4.408000000     1.789000000
C    -1.363000000     4.378000000     0.967000000
H    -2.396000000     4.247000000     1.278000000
C    -1.195000000     4.555000000    -0.470000000
O    -2.338000000     4.434000000    -1.127000000
C    -2.441000000     3.157000000    -1.838000000
C    -3.772000000     2.539000000    -1.779000000
C    -4.089000000     1.448000000    -2.621000000
H    -3.473000000     1.149000000    -3.465000000
C    -4.719000000     2.810000000    -0.748000000
H    -4.452000000     3.578000000    -0.026000000
O    -2.010000000     3.340000000    -3.223000000
H    -1.765000000     2.442000000    -1.347000000
C     0.034000000     4.725000000    -1.042000000
C     0.254000000     5.018000000    -2.565000000
H     1.136000000     5.590000000    -2.862000000
H    -0.668000000     5.528000000    -2.853000000
C     0.433000000     3.719000000    -3.314000000
C     1.720000000     3.196000000    -3.492000000
H     2.558000000     3.836000000    -3.226000000
C    -0.760000000     2.930000000    -3.628000000
C    -0.576000000     1.651000000    -4.090000000
H    -1.434000000     0.993000000    -4.196000000
C     0.753000000     1.141000000    -4.292000000
O     0.861000000    -0.169000000    -4.667000000
C     1.094000000    -1.198000000    -3.657000000
C     0.149000000    -2.439000000    -3.887000000
C    -0.946000000    -2.370000000    -4.736000000
H    -1.238000000    -1.423000000    -5.182000000
C     0.436000000    -3.738000000    -3.418000000
H     1.302000000    -3.775000000    -2.762000000
O     2.556000000    -1.480000000    -3.695000000
H     0.853000000    -0.783000000    -2.667000000
C     1.898000000     1.900000000    -3.972000000
C     3.323000000     1.380000000    -4.124000000
H     3.932000000     2.285000000    -4.165000000
H     3.488000000     0.872000000    -5.077000000
C     3.687000000     0.538000000    -2.948000000
C     3.383000000    -0.848000000    -2.823000000
C     3.808000000    -1.642000000    -1.783000000
H     3.454000000    -2.669000000    -1.795000000
C     4.408000000    -1.026000000    -0.727000000
O     4.631000000    -1.790000000     0.340000000
C     3.717000000    -1.534000000     1.404000000
H     2.854000000    -0.972000000     1.020000000
C     3.201000000    -2.912000000     1.950000000
C     2.766000000    -3.003000000     3.248000000
H     2.770000000    -2.108000000     3.865000000
C     3.086000000    -4.101000000     1.198000000
H     3.474000000    -4.131000000     0.183000000
C     2.557000000    -5.293000000     1.753000000
O     2.452000000    -6.491000000     1.022000000
C     2.184000000    -5.316000000     3.053000000
H     1.796000000    -6.207000000     3.539000000
C     2.345000000    -4.169000000     3.833000000
O     1.898000000    -4.306000000     5.133000000
C     1.779000000    -3.195000000     5.980000000
C     0.614000000    -2.468000000     5.928000000
H    -0.166000000    -2.904000000     5.310000000
C     2.893000000    -2.786000000     6.654000000
H     3.874000000    -3.221000000     6.481000000
C     2.794000000    -1.673000000     7.448000000
H     3.654000000    -1.276000000     7.981000000
C     1.555000000    -0.976000000     7.505000000
H     1.436000000    -0.132000000     8.180000000
C     0.475000000    -1.346000000     6.686000000
O    -0.738000000    -0.735000000     6.804000000
C    -1.216000000     0.152000000     5.847000000
C    -2.585000000     0.307000000     5.721000000
H    -3.290000000    -0.213000000     6.363000000
C    -3.098000000     1.312000000     4.901000000
O    -4.440000000     1.542000000     4.791000000
C    -5.018000000     2.298000000     3.821000000
C    -5.584000000     1.816000000     2.653000000
H    -5.542000000     0.755000000     2.424000000
C    -5.160000000     3.670000000     4.127000000
H    -4.723000000     3.973000000     5.075000000
C    -5.861000000     4.484000000     3.242000000
H    -5.917000000     5.550000000     3.445000000
C    -6.431000000     3.929000000     2.131000000
H    -7.035000000     4.547000000     1.472000000
C    -6.227000000     2.626000000     1.759000000
O    -6.694000000     2.145000000     0.521000000
C    -5.754000000     1.916000000    -0.494000000
C    -6.059000000     0.916000000    -1.375000000
H    -6.910000000     0.248000000    -1.269000000
C    -5.226000000     0.658000000    -2.445000000
O    -5.555000000    -0.329000000    -3.254000000
C    -4.959000000    -0.741000000    -4.451000000
C    -4.253000000    -1.913000000    -4.521000000
H    -4.168000000    -2.479000000    -3.596000000
C    -5.183000000    -0.030000000    -5.658000000
H    -5.732000000     0.900000000    -5.537000000
C    -4.747000000    -0.502000000    -6.887000000
H    -4.960000000     0.116000000    -7.755000000
C    -3.962000000    -1.660000000    -6.902000000
H    -3.540000000    -1.998000000    -7.845000000
C    -3.713000000    -2.327000000    -5.720000000
O    -2.838000000    -3.403000000    -5.839000000
C    -1.749000000    -3.503000000    -5.003000000
C    -1.432000000    -4.736000000    -4.517000000
H    -2.140000000    -5.553000000    -4.626000000
C    -0.291000000    -4.850000000    -3.722000000
O     0.002000000    -6.050000000    -3.147000000
C     1.175000000    -6.245000000    -2.380000000
C     2.371000000    -6.391000000    -3.042000000
H     2.320000000    -6.437000000    -4.127000000
C     3.587000000    -6.457000000    -2.395000000
H     4.466000000    -6.542000000    -3.029000000
C     3.633000000    -6.485000000    -1.028000000
H     4.580000000    -6.335000000    -0.517000000
C     2.430000000    -6.487000000    -0.325000000
C     1.208000000    -6.397000000    -0.971000000
H     0.285000000    -6.409000000    -0.397000000
C    -0.769000000    -3.159000000    -0.700000000
H    -0.331000000    -4.153000000    -0.661000000
C     0.058000000    -2.096000000    -0.515000000
H     1.127000000    -2.291000000    -0.495000000
C    -0.397000000    -0.752000000    -0.325000000
H     0.283000000     0.069000000    -0.201000000
C    -1.822000000    -0.579000000    -0.484000000
H    -2.269000000     0.409000000    -0.414000000
C    -2.634000000    -1.711000000    -0.691000000
H    -3.703000000    -1.517000000    -0.717000000
C    -2.143000000    -2.988000000    -0.803000000
C    -3.113000000    -4.129000000    -1.009000000
O    -4.239000000    -3.819000000    -1.367000000
O    -2.790000000    -5.278000000    -0.653000000
O    -3.340000000    -7.883000000    -0.500000000
H    -3.291000000    -6.936000000    -0.630000000
H    -2.487000000    -8.120000000    -0.136000000
O    -4.508000000    -5.718000000     4.657000000
H    -4.864000000    -5.908000000     3.789000000
H    -5.117000000    -6.140000000     5.263000000
O    -4.358000000    -2.477000000     3.559000000
H    -3.405000000    -2.456000000     3.654000000
H    -4.521000000    -3.196000000     2.948000000
O    -0.801000000    -3.855000000     2.585000000
H    -0.999000000    -2.921000000     2.516000000
H     0.155000000    -3.900000000     2.564000000
O    -1.842000000    -1.439000000     2.637000000
H    -1.823000000    -0.653000000     3.183000000
H    -2.227000000    -1.148000000     1.811000000
O    -2.020000000    -6.077000000     1.947000000
H    -2.263000000    -6.020000000     1.023000000
H    -1.416000000    -5.347000000     2.081000000
O    -2.242000000    -9.455000000    -2.919000000
H    -2.953000000    -8.986000000    -2.483000000
H    -1.982000000   -10.132000000    -2.294000000
O    -8.557000000    -5.725000000     0.981000000
H    -7.721000000    -6.133000000     0.755000000
H    -8.749000000    -6.045000000     1.862000000
O    -6.732000000    -1.677000000     2.096000000
H    -5.860000000    -1.656000000     2.492000000
H    -6.576000000    -1.925000000     1.185000000
O    -1.142000000    -8.998000000     0.596000000
H    -0.579000000    -9.772000000     0.570000000
H    -0.896000000    -8.550000000     1.405000000
O    -7.600000000    -4.503000000    -5.067000000
H    -6.868000000    -4.938000000    -4.630000000
H    -7.651000000    -3.643000000    -4.650000000
O    -2.257000000    -3.983000000     4.995000000
H    -3.077000000    -4.453000000     4.839000000
H    -1.793000000    -4.029000000     4.159000000
O    -5.072000000    -6.816000000    -4.813000000
H    -4.934000000    -6.090000000    -4.205000000
H    -5.559000000    -6.429000000    -5.541000000
O    -5.970000000    -6.809000000    -0.146000000
H    -5.113000000    -7.185000000     0.053000000
H    -5.972000000    -6.706000000    -1.097000000
O    -6.040000000    -4.901000000    -3.002000000
H    -6.885000000    -4.757000000    -2.576000000
H    -5.395000000    -4.755000000    -2.311000000
O    -6.093000000    -2.255000000    -0.315000000
H    -6.637000000    -2.413000000    -1.086000000
H    -5.261000000    -2.685000000    -0.517000000
O    -4.747000000    -4.749000000     1.900000000
H    -5.051000000    -4.826000000     0.996000000
H    -3.959000000    -5.290000000     1.935000000
O    -8.484000000    -4.249000000    -1.423000000
H    -8.869000000    -3.479000000    -1.005000000
H    -8.570000000    -4.943000000    -0.769000000
O    -0.681000000    -7.825000000     3.510000000
H    -1.120000000    -7.024000000     3.224000000
H    -0.186000000    -7.563000000     4.286000000
