215
-1462.88913
C    -3.185000000    -3.214000000    -3.626000000
H    -3.188000000    -2.525000000    -4.468000000
C    -3.458000000    -2.856000000    -2.244000000
C    -3.644000000    -3.887000000    -1.321000000
H    -4.072000000    -3.674000000    -0.344000000
C    -3.615000000    -1.380000000    -1.941000000
O    -3.774000000    -0.585000000    -3.146000000
H    -2.638000000    -1.000000000    -1.606000000
O    -4.582000000    -1.165000000    -0.890000000
C    -4.325000000    -0.246000000     0.080000000
C    -3.856000000    -0.694000000     1.288000000
H    -3.655000000    -1.760000000     1.353000000
C    -3.557000000     0.248000000     2.305000000
O    -3.072000000    -0.135000000     3.555000000
C    -3.716000000     1.650000000     2.083000000
C    -3.431000000     2.742000000     3.111000000
H    -4.071000000     3.625000000     3.048000000
C    -1.975000000     3.217000000     3.317000000
C    -1.527000000     4.314000000     2.619000000
H    -2.205000000     4.881000000     1.985000000
H    -3.743000000     2.230000000     4.023000000
C    -4.212000000     2.057000000     0.858000000
H    -4.217000000     3.106000000     0.574000000
C    -4.529000000     1.112000000    -0.117000000
C    -5.007000000     1.551000000    -1.435000000
H    -5.629000000     2.446000000    -1.363000000
H    -5.682000000     0.783000000    -1.821000000
C    -3.851000000     1.785000000    -2.397000000
C    -3.265000000     3.086000000    -2.435000000
H    -3.646000000     3.882000000    -1.801000000
C    -3.369000000     0.770000000    -3.233000000
C    -2.329000000     1.058000000    -4.087000000
H    -1.923000000     0.255000000    -4.697000000
C    -1.604000000     2.306000000    -4.018000000
O    -0.364000000     2.269000000    -4.638000000
C     0.703000000     1.951000000    -3.767000000
C     1.463000000     0.843000000    -4.332000000
C     2.550000000     0.386000000    -3.600000000
H     2.904000000     0.997000000    -2.774000000
C     1.014000000     0.061000000    -5.414000000
H     0.148000000     0.303000000    -6.025000000
O     1.463000000     3.145000000    -3.506000000
H     0.235000000     1.575000000    -2.845000000
C    -2.084000000     3.308000000    -3.201000000
C    -1.336000000     4.622000000    -3.050000000
H    -1.974000000     5.480000000    -2.826000000
H    -1.072000000     4.873000000    -4.080000000
C    -0.119000000     4.531000000    -2.059000000
C    -0.384000000     4.960000000    -0.802000000
H    -1.357000000     5.398000000    -0.594000000
C     1.108000000     3.822000000    -2.327000000
C     2.108000000     3.874000000    -1.400000000
H     3.029000000     3.380000000    -1.697000000
C     1.903000000     4.413000000    -0.117000000
O     2.946000000     4.179000000     0.790000000
C     2.608000000     3.341000000     1.889000000
C     3.742000000     2.430000000     2.330000000
C     4.317000000     1.573000000     1.417000000
H     4.069000000     1.710000000     0.367000000
C     3.996000000     2.276000000     3.704000000
H     3.532000000     2.879000000     4.480000000
O     2.046000000     4.012000000     3.015000000
H     1.865000000     2.622000000     1.514000000
C     0.632000000     4.959000000     0.198000000
C     0.310000000     5.646000000     1.533000000
H    -0.473000000     6.400000000     1.428000000
H     1.136000000     6.210000000     1.972000000
C    -0.192000000     4.650000000     2.601000000
C     0.781000000     3.864000000     3.219000000
C     0.384000000     2.776000000     3.941000000
H     1.064000000     2.061000000     4.395000000
C    -1.004000000     2.477000000     4.014000000
O    -1.321000000     1.184000000     4.580000000
C    -1.608000000     0.127000000     3.646000000
H    -1.247000000     0.482000000     2.670000000
C    -0.933000000    -1.145000000     3.990000000
C    -0.894000000    -2.166000000     3.022000000
H    -1.549000000    -2.186000000     2.154000000
C    -0.053000000    -1.212000000     5.035000000
H     0.143000000    -0.376000000     5.702000000
C     0.681000000    -2.375000000     5.302000000
O     1.595000000    -2.360000000     6.315000000
C     0.702000000    -3.356000000     4.348000000
H     1.330000000    -4.233000000     4.483000000
C    -0.119000000    -3.290000000     3.225000000
O    -0.122000000    -4.341000000     2.314000000
C    -1.321000000    -5.092000000     2.048000000
C    -1.599000000    -5.352000000     0.701000000
H    -0.856000000    -4.994000000    -0.007000000
C    -2.120000000    -5.534000000     3.039000000
H    -1.805000000    -5.288000000     4.050000000
C    -3.394000000    -6.081000000     2.750000000
H    -4.097000000    -6.230000000     3.566000000
C    -3.766000000    -6.266000000     1.415000000
H    -4.727000000    -6.723000000     1.195000000
C    -2.840000000    -5.936000000     0.421000000
O    -3.198000000    -6.220000000    -0.865000000
C    -3.320000000    -5.186000000    -1.712000000
C    -2.871000000    -5.518000000    -2.948000000
H    -2.430000000    -6.495000000    -3.131000000
C    -2.854000000    -4.571000000    -3.953000000
O    -2.399000000    -4.897000000    -5.240000000
C    -1.886000000    -3.982000000    -6.107000000
C    -0.611000000    -3.438000000    -6.007000000
H     0.084000000    -3.851000000    -5.280000000
C    -2.756000000    -3.448000000    -7.062000000
H    -3.777000000    -3.779000000    -7.229000000
C    -2.316000000    -2.471000000    -7.939000000
H    -2.949000000    -2.043000000    -8.712000000
C    -0.979000000    -1.969000000    -7.918000000
H    -0.672000000    -1.148000000    -8.561000000
C    -0.151000000    -2.464000000    -6.925000000
O     1.150000000    -1.946000000    -6.797000000
C     1.596000000    -1.143000000    -5.732000000
C     2.720000000    -1.534000000    -5.038000000
H     3.203000000    -2.431000000    -5.417000000
C     3.236000000    -0.797000000    -3.981000000
O     4.442000000    -1.184000000    -3.376000000
C     5.175000000    -0.400000000    -2.532000000
C     5.262000000    -0.777000000    -1.192000000
H     4.848000000    -1.701000000    -0.797000000
C     5.720000000     0.786000000    -2.957000000
H     5.650000000     1.097000000    -3.996000000
C     6.383000000     1.624000000    -2.074000000
H     6.849000000     2.528000000    -2.458000000
C     6.507000000     1.223000000    -0.733000000
H     7.017000000     1.874000000    -0.027000000
C     5.904000000     0.055000000    -0.323000000
O     5.923000000    -0.227000000     1.007000000
C     5.239000000     0.569000000     1.853000000
C     5.411000000     0.365000000     3.256000000
H     5.943000000    -0.486000000     3.674000000
C     4.739000000     1.133000000     4.162000000
O     4.959000000     1.051000000     5.445000000
C     4.232000000     0.252000000     6.323000000
C     4.319000000     0.513000000     7.687000000
H     5.058000000     1.218000000     8.059000000
C     3.444000000    -0.147000000     8.617000000
H     3.599000000     0.006000000     9.682000000
C     2.584000000    -1.066000000     8.112000000
H     1.964000000    -1.639000000     8.796000000
C     2.447000000    -1.319000000     6.715000000
C     3.217000000    -0.609000000     5.843000000
H     3.163000000    -0.908000000     4.799000000
C     1.997000000    -1.218000000     0.903000000
H     2.740000000    -1.379000000     1.680000000
C     1.207000000    -0.070000000     0.936000000
H     1.299000000     0.493000000     1.862000000
C     0.326000000     0.284000000    -0.070000000
H    -0.356000000     1.147000000    -0.027000000
C     0.241000000    -0.592000000    -1.211000000
H    -0.433000000    -0.265000000    -1.999000000
C     0.944000000    -1.786000000    -1.219000000
H     0.837000000    -2.479000000    -2.049000000
C     1.782000000    -2.121000000    -0.132000000
C     2.627000000    -3.407000000    -0.049000000
O     2.622000000    -4.186000000    -0.960000000
O     3.520000000    -3.595000000     0.798000000
O     8.369000000    -3.941000000     3.116000000
H     7.666000000    -3.362000000     2.821000000
H     7.920000000    -4.739000000     3.396000000
O     7.263000000    -7.827000000    -0.902000000
H     7.928000000    -7.191000000    -1.165000000
H     6.634000000    -7.318000000    -0.390000000
O     4.378000000    -5.113000000     6.258000000
H     4.080000000    -4.653000000     5.474000000
H     4.467000000    -6.025000000     5.981000000
O     3.009000000    -7.195000000     4.776000000
H     3.299000000    -8.002000000     5.202000000
H     3.572000000    -7.115000000     4.006000000
O     2.490000000    -8.732000000     0.493000000
H     2.112000000    -7.860000000     0.604000000
H     2.855000000    -8.724000000    -0.392000000
O     4.296000000    -3.399000000     3.967000000
H     3.573000000    -3.274000000     3.353000000
H     5.055000000    -3.574000000     3.410000000
O     5.633000000    -6.049000000     0.586000000
H     5.175000000    -6.652000000     1.170000000
H     5.717000000    -5.241000000     1.093000000
O     7.844000000    -3.106000000    -0.168000000
H     8.374000000    -3.856000000    -0.440000000
H     8.433000000    -2.355000000    -0.248000000
O     4.773000000    -5.474000000    -2.134000000
H     3.963000000    -5.048000000    -1.855000000
H     5.255000000    -5.627000000    -1.322000000
O     3.318000000    -9.266000000    -2.234000000
H     2.926000000    -8.393000000    -2.218000000
H     4.206000000    -9.123000000    -2.562000000
O     1.634000000    -6.103000000    -4.805000000
H     1.392000000    -6.904000000    -5.269000000
H     1.845000000    -5.478000000    -5.498000000
O     2.258000000    -5.999000000     1.189000000
H     2.748000000    -5.328000000     0.714000000
H     1.798000000    -5.518000000     1.877000000
O    -0.600000000    -8.448000000    -2.904000000
H     0.168000000    -7.890000000    -2.784000000
H    -0.853000000    -8.703000000    -2.017000000
O     4.758000000    -5.786000000    -4.799000000
H     3.836000000    -6.015000000    -4.914000000
H     4.903000000    -5.840000000    -3.854000000
O     5.933000000    -3.376000000    -5.425000000
H     5.783000000    -3.245000000    -4.489000000
H     5.610000000    -4.260000000    -5.598000000
O     1.860000000    -6.627000000    -2.071000000
H     2.092000000    -6.191000000    -2.890000000
H     1.778000000    -5.916000000    -1.435000000
O     4.205000000    -8.102000000     2.411000000
H     4.788000000    -8.830000000     2.198000000
H     3.411000000    -8.274000000     1.905000000
O     5.968000000    -3.267000000     1.859000000
H     5.175000000    -3.036000000     1.375000000
H     6.679000000    -3.124000000     1.234000000
O     6.729000000    -3.322000000    -2.623000000
H     6.204000000    -4.108000000    -2.469000000
H     6.845000000    -2.937000000    -1.754000000
