215
-1464.36461
C    -2.217000000     1.560000000     4.470000000
H    -2.492000000     2.595000000     4.279000000
C    -0.911000000     1.133000000     4.165000000
C    -0.479000000    -0.147000000     4.496000000
H     0.413000000    -0.660000000     4.144000000
C     0.059000000     2.099000000     3.435000000
O    -0.316000000     3.437000000     3.451000000
H     0.110000000     1.782000000     2.383000000
O     1.341000000     2.073000000     4.044000000
C     2.384000000     2.005000000     3.142000000
C     2.974000000     0.770000000     2.995000000
H     2.564000000     0.006000000     3.650000000
C     3.918000000     0.492000000     2.030000000
O     4.343000000    -0.823000000     1.884000000
C     4.285000000     1.559000000     1.254000000
C     5.421000000     1.371000000     0.216000000
H     5.946000000     2.300000000    -0.016000000
C     4.911000000     0.780000000    -1.042000000
C     4.373000000     1.663000000    -1.937000000
H     4.637000000     2.705000000    -1.776000000
H     6.207000000     0.787000000     0.698000000
C     3.723000000     2.826000000     1.310000000
H     4.143000000     3.651000000     0.741000000
C     2.751000000     3.079000000     2.275000000
C     2.291000000     4.515000000     2.376000000
H     2.920000000     5.183000000     1.784000000
H     2.211000000     4.983000000     3.360000000
C     0.888000000     4.661000000     1.717000000
C     0.846000000     5.074000000     0.394000000
H     1.802000000     5.239000000    -0.097000000
C    -0.251000000     4.214000000     2.327000000
C    -1.473000000     4.189000000     1.662000000
H    -2.316000000     3.599000000     2.013000000
C    -1.560000000     4.700000000     0.372000000
O    -2.702000000     4.499000000    -0.367000000
C    -2.685000000     3.304000000    -1.120000000
C    -3.896000000     2.340000000    -0.926000000
C    -4.102000000     1.246000000    -1.821000000
H    -3.338000000     1.031000000    -2.563000000
C    -4.811000000     2.579000000     0.066000000
H    -4.726000000     3.475000000     0.675000000
O    -2.379000000     3.640000000    -2.475000000
H    -1.781000000     2.762000000    -0.804000000
C    -0.355000000     5.150000000    -0.264000000
C    -0.222000000     5.421000000    -1.723000000
H     0.566000000     6.155000000    -1.909000000
H    -1.101000000     5.968000000    -2.068000000
C    -0.007000000     4.157000000    -2.569000000
C     1.310000000     3.767000000    -2.838000000
H     2.162000000     4.281000000    -2.402000000
C    -1.059000000     3.328000000    -2.939000000
C    -0.812000000     2.173000000    -3.713000000
H    -1.628000000     1.516000000    -4.007000000
C     0.480000000     1.862000000    -3.962000000
O     0.633000000     0.636000000    -4.596000000
C     1.150000000    -0.499000000    -3.907000000
C     0.396000000    -1.759000000    -4.288000000
C    -0.876000000    -1.721000000    -4.814000000
H    -1.327000000    -0.762000000    -5.056000000
C     1.014000000    -3.009000000    -4.118000000
H     1.988000000    -3.054000000    -3.638000000
O     2.581000000    -0.542000000    -4.164000000
H     0.804000000    -0.388000000    -2.868000000
C     1.556000000     2.588000000    -3.503000000
C     2.975000000     2.133000000    -3.942000000
H     3.586000000     3.035000000    -3.870000000
H     3.047000000     1.718000000    -4.949000000
C     3.634000000     1.168000000    -2.993000000
C     3.486000000    -0.116000000    -3.254000000
C     3.995000000    -1.029000000    -2.348000000
H     3.809000000    -2.071000000    -2.595000000
C     4.721000000    -0.626000000    -1.226000000
O     4.902000000    -1.556000000    -0.229000000
C     3.832000000    -1.563000000     0.742000000
H     2.960000000    -1.129000000     0.230000000
C     3.444000000    -2.957000000     1.148000000
C     3.257000000    -3.232000000     2.482000000
H     3.253000000    -2.407000000     3.190000000
C     3.463000000    -3.963000000     0.217000000
H     3.845000000    -3.863000000    -0.795000000
C     3.198000000    -5.251000000     0.613000000
O     3.322000000    -6.371000000    -0.233000000
C     2.910000000    -5.536000000     1.962000000
H     2.718000000    -6.569000000     2.241000000
C     2.879000000    -4.515000000     2.889000000
O     2.629000000    -4.862000000     4.183000000
C     2.002000000    -4.015000000     5.069000000
C     0.713000000    -3.533000000     4.820000000
H     0.257000000    -3.889000000     3.900000000
C     2.724000000    -3.544000000     6.155000000
H     3.735000000    -3.904000000     6.329000000
C     2.135000000    -2.618000000     7.015000000
H     2.704000000    -2.163000000     7.822000000
C     0.840000000    -2.155000000     6.815000000
H     0.379000000    -1.386000000     7.430000000
C     0.161000000    -2.637000000     5.726000000
O    -1.175000000    -2.238000000     5.543000000
C    -1.415000000    -0.901000000     5.258000000
C    -2.699000000    -0.527000000     5.484000000
H    -3.443000000    -1.112000000     6.019000000
C    -3.103000000     0.739000000     5.083000000
O    -4.349000000     1.193000000     5.379000000
C    -5.076000000     2.060000000     4.602000000
C    -5.650000000     1.571000000     3.463000000
H    -5.465000000     0.534000000     3.194000000
C    -5.529000000     3.316000000     5.094000000
H    -5.274000000     3.638000000     6.100000000
C    -6.251000000     4.123000000     4.291000000
H    -6.588000000     5.071000000     4.703000000
C    -6.528000000     3.745000000     2.985000000
H    -7.019000000     4.350000000     2.226000000
C    -6.351000000     2.390000000     2.576000000
O    -6.756000000     1.939000000     1.314000000
C    -5.876000000     1.748000000     0.240000000
C    -6.037000000     0.559000000    -0.480000000
H    -6.897000000    -0.079000000    -0.299000000
C    -5.175000000     0.301000000    -1.506000000
O    -5.256000000    -0.857000000    -2.211000000
C    -4.987000000    -0.873000000    -3.542000000
C    -4.144000000    -1.886000000    -3.986000000
H    -3.728000000    -2.557000000    -3.239000000
C    -5.642000000    -0.029000000    -4.463000000
H    -6.365000000     0.694000000    -4.094000000
C    -5.341000000    -0.097000000    -5.822000000
H    -5.899000000     0.515000000    -6.527000000
C    -4.412000000    -1.086000000    -6.278000000
H    -4.180000000    -1.267000000    -7.325000000
C    -3.799000000    -1.909000000    -5.337000000
O    -2.875000000    -2.864000000    -5.649000000
C    -1.584000000    -2.899000000    -5.106000000
C    -0.894000000    -4.125000000    -5.087000000
H    -1.416000000    -5.044000000    -5.338000000
C     0.361000000    -4.180000000    -4.539000000
O     0.950000000    -5.449000000    -4.360000000
C     2.067000000    -5.761000000    -3.594000000
C     3.193000000    -6.218000000    -4.324000000
H     3.202000000    -6.104000000    -5.405000000
C     4.315000000    -6.653000000    -3.647000000
H     5.251000000    -6.887000000    -4.149000000
C     4.372000000    -6.592000000    -2.265000000
H     5.168000000    -7.097000000    -1.724000000
C     3.246000000    -6.228000000    -1.545000000
C     2.056000000    -5.731000000    -2.169000000
H     1.235000000    -5.365000000    -1.557000000
C    -0.131000000    -2.902000000     0.408000000
H     0.262000000    -3.883000000     0.153000000
C     0.361000000    -1.800000000    -0.224000000
H     1.187000000    -1.823000000    -0.930000000
C    -0.160000000    -0.541000000     0.133000000
H     0.224000000     0.359000000    -0.385000000
C    -1.095000000    -0.417000000     1.113000000
H    -1.489000000     0.570000000     1.343000000
C    -1.663000000    -1.544000000     1.782000000
H    -2.433000000    -1.389000000     2.533000000
C    -1.147000000    -2.806000000     1.417000000
C    -1.772000000    -4.015000000     2.045000000
O    -2.879000000    -3.954000000     2.535000000
O    -1.147000000    -5.053000000     1.932000000
O    -7.627000000    -2.587000000     1.963000000
H    -7.899000000    -2.169000000     2.780000000
H    -6.884000000    -3.137000000     2.212000000
O    -0.296000000    -6.533000000    -0.005000000
H    -1.061000000    -6.705000000    -0.555000000
H    -0.636000000    -6.006000000     0.718000000
O    -3.464000000    -3.681000000     5.505000000
H    -2.853000000    -2.945000000     5.538000000
H    -2.922000000    -4.432000000     5.262000000
O    -5.928000000    -2.871000000     6.182000000
H    -5.979000000    -3.381000000     6.990000000
H    -5.068000000    -3.082000000     5.819000000
O    -2.967000000    -9.752000000     1.011000000
H    -2.058000000    -9.812000000     0.715000000
H    -3.384000000    -9.158000000     0.387000000
O    -5.426000000    -3.401000000     3.092000000
H    -4.561000000    -3.557000000     2.714000000
H    -5.250000000    -3.168000000     4.004000000
O    -0.718000000    -6.114000000     6.877000000
H    -1.080000000    -6.048000000     5.993000000
H    -1.317000000    -5.600000000     7.419000000
O     0.291000000    -7.692000000     3.620000000
H     0.538000000    -7.863000000     2.711000000
H    -0.144000000    -6.840000000     3.594000000
O    -7.015000000    -5.022000000    -0.113000000
H    -6.853000000    -5.420000000     0.743000000
H    -6.218000000    -4.526000000    -0.301000000
O    -3.481000000    -6.463000000     1.039000000
H    -4.069000000    -6.672000000     1.765000000
H    -2.977000000    -5.709000000     1.348000000
O     1.316000000    -7.581000000     6.011000000
H     0.720000000    -7.003000000     6.487000000
H     0.930000000    -7.657000000     5.139000000
O    -5.001000000    -4.934000000    -2.738000000
H    -4.972000000    -4.301000000    -2.021000000
H    -5.934000000    -5.107000000    -2.867000000
O    -5.163000000    -3.031000000    -0.618000000
H    -5.411000000    -2.123000000    -0.792000000
H    -4.441000000    -2.966000000     0.006000000
O     1.471000000    -8.427000000     0.991000000
H     1.057000000    -9.150000000     0.519000000
H     1.355000000    -7.669000000     0.418000000
O    -2.094000000    -5.602000000    -2.278000000
H    -2.169000000    -5.537000000    -3.230000000
H    -2.944000000    -5.307000000    -1.950000000
O    -4.270000000    -8.374000000    -1.063000000
H    -4.110000000    -7.778000000    -0.332000000
H    -4.912000000    -7.918000000    -1.608000000
O    -2.115000000    -5.781000000     4.627000000
H    -2.287000000    -6.686000000     4.369000000
H    -2.100000000    -5.295000000     3.802000000
O    -6.915000000    -6.033000000     2.589000000
H    -7.766000000    -5.826000000     2.975000000
H    -6.324000000    -5.367000000     2.942000000
O    -2.901000000    -8.194000000     3.561000000
H    -3.393000000    -8.972000000     3.825000000
H    -2.443000000    -8.460000000     2.764000000
