215
-1452.99701
C    -1.551000000     3.051000000     4.401000000
H    -1.855000000     4.010000000     3.989000000
C    -0.357000000     2.381000000     4.189000000
C    -0.157000000     1.135000000     4.689000000
H     0.759000000     0.608000000     4.433000000
C     0.544000000     2.868000000     3.076000000
O     0.088000000     4.245000000     2.674000000
H     0.424000000     2.120000000     2.279000000
O     1.937000000     2.840000000     3.391000000
C     2.762000000     2.597000000     2.425000000
C     3.291000000     1.318000000     2.615000000
H     2.916000000     0.688000000     3.417000000
C     4.181000000     0.820000000     1.681000000
O     4.570000000    -0.495000000     1.776000000
C     4.612000000     1.634000000     0.593000000
C     5.514000000     1.044000000    -0.462000000
H     5.978000000     1.899000000    -0.958000000
C     4.718000000     0.331000000    -1.531000000
C     4.187000000     1.016000000    -2.547000000
H     4.390000000     2.077000000    -2.666000000
H     6.323000000     0.465000000    -0.011000000
C     4.033000000     2.927000000     0.484000000
H     4.289000000     3.521000000    -0.390000000
C     3.239000000     3.490000000     1.482000000
C     2.603000000     4.863000000     1.391000000
H     3.352000000     5.501000000     0.917000000
H     2.571000000     5.339000000     2.373000000
C     1.267000000     4.810000000     0.652000000
C     1.156000000     4.967000000    -0.757000000
H     2.010000000     5.073000000    -1.422000000
C     0.124000000     4.540000000     1.393000000
C    -1.137000000     4.422000000     0.811000000
H    -2.058000000     4.202000000     1.344000000
C    -1.246000000     4.462000000    -0.590000000
O    -2.480000000     4.075000000    -1.133000000
C    -2.583000000     2.709000000    -1.625000000
C    -3.891000000     2.151000000    -1.155000000
C    -4.459000000     1.094000000    -1.878000000
H    -3.952000000     0.787000000    -2.789000000
C    -4.515000000     2.673000000    -0.010000000
H    -4.097000000     3.514000000     0.537000000
O    -2.541000000     2.739000000    -3.065000000
H    -1.770000000     2.130000000    -1.162000000
C    -0.105000000     4.706000000    -1.344000000
C    -0.284000000     4.735000000    -2.851000000
H     0.434000000     5.442000000    -3.270000000
H    -1.184000000     5.276000000    -3.151000000
C    -0.215000000     3.409000000    -3.546000000
C     1.034000000     2.904000000    -3.879000000
H     1.885000000     3.563000000    -3.727000000
C    -1.297000000     2.472000000    -3.623000000
C    -1.071000000     1.162000000    -4.005000000
H    -1.889000000     0.453000000    -4.104000000
C     0.216000000     0.754000000    -4.427000000
O     0.318000000    -0.590000000    -4.741000000
C     0.919000000    -1.564000000    -3.905000000
C     0.154000000    -2.862000000    -3.896000000
C    -1.243000000    -2.796000000    -3.695000000
H    -1.793000000    -1.860000000    -3.642000000
C     0.791000000    -4.124000000    -3.931000000
H     1.848000000    -4.198000000    -4.175000000
O     2.387000000    -1.724000000    -4.334000000
H     0.875000000    -1.207000000    -2.866000000
C     1.348000000     1.565000000    -4.365000000
C     2.732000000     1.109000000    -4.673000000
H     3.349000000     1.921000000    -5.063000000
H     2.784000000     0.425000000    -5.523000000
C     3.425000000     0.331000000    -3.534000000
C     3.235000000    -1.100000000    -3.474000000
C     3.751000000    -1.771000000    -2.378000000
H     3.673000000    -2.852000000    -2.458000000
C     4.475000000    -1.040000000    -1.428000000
O     4.770000000    -1.697000000    -0.284000000
C     3.977000000    -1.456000000     0.924000000
H     2.988000000    -1.090000000     0.611000000
C     3.591000000    -2.743000000     1.641000000
C     3.428000000    -2.864000000     2.980000000
H     3.637000000    -2.069000000     3.692000000
C     3.190000000    -3.827000000     0.803000000
H     3.344000000    -3.956000000    -0.265000000
C     2.606000000    -5.010000000     1.362000000
O     2.160000000    -6.084000000     0.617000000
C     2.401000000    -5.047000000     2.732000000
H     1.839000000    -5.902000000     3.099000000
C     2.828000000    -3.965000000     3.531000000
O     2.506000000    -4.012000000     4.883000000
C     2.071000000    -2.910000000     5.561000000
C     0.761000000    -2.465000000     5.446000000
H    -0.024000000    -2.997000000     4.915000000
C     2.970000000    -2.217000000     6.355000000
H     3.940000000    -2.705000000     6.409000000
C     2.564000000    -1.095000000     6.994000000
H     3.309000000    -0.497000000     7.513000000
C     1.251000000    -0.644000000     6.891000000
H     0.949000000     0.259000000     7.416000000
C     0.349000000    -1.345000000     6.111000000
O    -0.960000000    -0.784000000     5.936000000
C    -1.103000000     0.468000000     5.459000000
C    -2.335000000     1.091000000     5.515000000
H    -3.210000000     0.637000000     5.974000000
C    -2.611000000     2.341000000     4.979000000
O    -3.773000000     2.977000000     5.286000000
C    -4.524000000     3.537000000     4.337000000
C    -5.115000000     2.779000000     3.291000000
H    -4.952000000     1.716000000     3.139000000
C    -4.976000000     4.811000000     4.626000000
H    -4.542000000     5.348000000     5.465000000
C    -5.910000000     5.380000000     3.781000000
H    -6.186000000     6.421000000     3.932000000
C    -6.508000000     4.649000000     2.673000000
H    -7.340000000     5.057000000     2.104000000
C    -6.002000000     3.384000000     2.414000000
O    -6.545000000     2.627000000     1.438000000
C    -5.769000000     2.099000000     0.415000000
C    -6.207000000     0.884000000    -0.241000000
H    -7.152000000     0.412000000     0.014000000
C    -5.573000000     0.428000000    -1.358000000
O    -6.186000000    -0.664000000    -1.967000000
C    -5.624000000    -1.343000000    -2.992000000
C    -4.912000000    -2.480000000    -2.766000000
H    -4.768000000    -2.782000000    -1.732000000
C    -5.851000000    -0.955000000    -4.297000000
H    -6.392000000    -0.027000000    -4.463000000
C    -5.124000000    -1.627000000    -5.330000000
H    -5.182000000    -1.223000000    -6.337000000
C    -4.253000000    -2.714000000    -5.102000000
H    -3.568000000    -3.042000000    -5.880000000
C    -4.181000000    -3.157000000    -3.787000000
O    -3.313000000    -4.116000000    -3.461000000
C    -1.983000000    -4.012000000    -3.547000000
C    -1.296000000    -5.190000000    -3.518000000
H    -1.883000000    -6.091000000    -3.358000000
C     0.060000000    -5.270000000    -3.845000000
O     0.670000000    -6.504000000    -3.714000000
C     1.732000000    -6.633000000    -2.843000000
C     3.028000000    -7.045000000    -3.225000000
H     3.188000000    -7.265000000    -4.277000000
C     4.085000000    -7.104000000    -2.292000000
H     5.065000000    -7.393000000    -2.664000000
C     3.809000000    -6.769000000    -0.954000000
H     4.600000000    -6.616000000    -0.224000000
C     2.499000000    -6.507000000    -0.627000000
C     1.464000000    -6.430000000    -1.548000000
H     0.454000000    -6.180000000    -1.236000000
C    -1.198000000    -1.923000000    -0.080000000
H    -1.239000000    -2.894000000    -0.568000000
C    -0.212000000    -1.091000000    -0.429000000
H     0.667000000    -1.449000000    -0.958000000
C    -0.277000000     0.258000000    -0.044000000
H     0.606000000     0.921000000    -0.376000000
C    -1.293000000     0.687000000     0.826000000
H    -1.373000000     1.679000000     1.264000000
C    -2.225000000    -0.228000000     1.300000000
H    -3.004000000     0.055000000     2.004000000
C    -2.223000000    -1.568000000     0.803000000
C    -3.137000000    -2.624000000     1.266000000
O    -3.991000000    -2.394000000     2.092000000
O    -2.887000000    -3.776000000     0.958000000
O    -6.953000000    -5.995000000     4.764000000
H    -6.406000000    -5.262000000     5.044000000
H    -7.702000000    -5.978000000     5.360000000
O    -3.543000000    -1.879000000     4.867000000
H    -2.606000000    -1.707000000     4.770000000
H    -3.870000000    -1.939000000     3.970000000
O    -7.638000000    -3.405000000    -0.853000000
H    -7.305000000    -2.531000000    -1.056000000
H    -6.854000000    -3.952000000    -0.791000000
O    -4.043000000    -1.787000000     8.009000000
H    -3.390000000    -1.762000000     7.309000000
H    -3.532000000    -1.914000000     8.808000000
O    -6.517000000    -1.717000000     2.742000000
H    -5.706000000    -1.821000000     2.244000000
H    -6.995000000    -2.534000000     2.596000000
O    -6.592000000    -1.412000000     6.343000000
H    -6.151000000    -1.010000000     7.091000000
H    -6.123000000    -1.076000000     5.579000000
O    -1.172000000    -7.101000000     3.180000000
H    -1.081000000    -6.148000000     3.167000000
H    -0.801000000    -7.365000000     4.021000000
O    -7.198000000    -4.684000000     2.356000000
H    -8.068000000    -4.286000000     2.387000000
H    -7.008000000    -4.914000000     3.266000000
O    -2.096000000    -6.564000000     5.743000000
H    -2.564000000    -5.814000000     6.109000000
H    -2.591000000    -6.796000000     4.958000000
O    -3.882000000    -5.327000000     3.585000000
H    -3.616000000    -4.719000000     2.895000000
H    -4.319000000    -4.777000000     4.235000000
O    -5.077000000    -7.655000000     3.395000000
H    -4.574000000    -6.891000000     3.115000000
H    -5.907000000    -7.295000000     3.706000000
O    -8.804000000    -0.195000000     2.430000000
H    -7.973000000    -0.670000000     2.450000000
H    -9.005000000    -0.023000000     3.350000000
O    -3.632000000    -8.506000000    -1.575000000
H    -3.995000000    -8.485000000    -0.689000000
H    -2.783000000    -8.072000000    -1.496000000
O    -5.556000000    -4.963000000    -0.173000000
H    -6.262000000    -5.071000000     0.465000000
H    -4.822000000    -4.622000000     0.337000000
O    -2.484000000    -5.891000000    -0.626000000
H    -3.248000000    -5.763000000    -1.189000000
H    -2.413000000    -5.076000000    -0.129000000
O    -5.424000000    -3.715000000     5.556000000
H    -4.709000000    -3.083000000     5.487000000
H    -6.189000000    -3.187000000     5.784000000
O    -0.882000000    -4.396000000     2.714000000
H    -1.361000000    -4.392000000     1.885000000
H    -0.078000000    -3.910000000     2.529000000
O    -4.617000000    -8.776000000     0.777000000
H    -4.610000000    -8.511000000     1.697000000
H    -5.531000000    -8.683000000     0.508000000
O    -1.061000000    -8.494000000     0.776000000
H    -0.806000000    -8.042000000     1.580000000
H    -1.710000000    -7.917000000     0.373000000
