215
-1468.14592
C    -1.125000000     2.540000000     4.540000000
H    -1.610000000     3.399000000     4.085000000
C     0.217000000     2.199000000     4.323000000
C     0.824000000     1.192000000     5.062000000
H     1.882000000     1.006000000     4.900000000
C     1.003000000     2.845000000     3.171000000
O     0.486000000     4.195000000     2.851000000
H     0.783000000     2.147000000     2.349000000
O     2.499000000     2.948000000     3.317000000
C     3.266000000     2.691000000     2.185000000
C     3.805000000     1.373000000     2.178000000
H     3.643000000     0.753000000     3.056000000
C     4.400000000     0.941000000     0.988000000
O     4.762000000    -0.400000000     1.002000000
C     4.580000000     1.756000000    -0.120000000
C     5.194000000     1.251000000    -1.427000000
H     5.476000000     2.087000000    -2.070000000
C     4.308000000     0.354000000    -2.268000000
C     3.629000000     0.994000000    -3.328000000
H     3.848000000     2.052000000    -3.446000000
H     6.103000000     0.699000000    -1.178000000
C     4.056000000     3.014000000    -0.082000000
H     4.156000000     3.602000000    -0.991000000
C     3.321000000     3.464000000     1.022000000
C     2.732000000     4.866000000     1.132000000
H     3.330000000     5.604000000     0.593000000
H     2.737000000     5.070000000     2.205000000
C     1.305000000     4.771000000     0.575000000
C     1.037000000     4.960000000    -0.751000000
H     1.876000000     5.098000000    -1.429000000
C     0.238000000     4.465000000     1.499000000
C    -1.036000000     4.389000000     0.951000000
H    -1.912000000     4.229000000     1.574000000
C    -1.293000000     4.479000000    -0.401000000
O    -2.560000000     4.155000000    -0.789000000
C    -2.715000000     2.861000000    -1.352000000
C    -4.024000000     2.249000000    -0.851000000
C    -4.794000000     1.548000000    -1.768000000
H    -4.521000000     1.404000000    -2.810000000
C    -4.361000000     2.186000000     0.492000000
H    -3.609000000     2.429000000     1.239000000
O    -2.643000000     2.887000000    -2.705000000
H    -1.947000000     2.162000000    -0.988000000
C    -0.206000000     4.731000000    -1.291000000
C    -0.361000000     4.711000000    -2.839000000
H     0.494000000     5.253000000    -3.250000000
H    -1.272000000     5.245000000    -3.116000000
C    -0.374000000     3.314000000    -3.444000000
C     0.741000000     2.838000000    -4.107000000
H     1.653000000     3.424000000    -4.032000000
C    -1.464000000     2.464000000    -3.279000000
C    -1.634000000     1.207000000    -3.905000000
H    -2.520000000     0.583000000    -3.816000000
C    -0.503000000     0.800000000    -4.556000000
O    -0.498000000    -0.465000000    -5.007000000
C     0.019000000    -1.421000000    -4.017000000
C    -0.806000000    -2.727000000    -3.875000000
C    -2.176000000    -2.710000000    -4.026000000
H    -2.718000000    -1.835000000    -4.375000000
C    -0.175000000    -3.792000000    -3.221000000
H     0.840000000    -3.602000000    -2.879000000
O     1.412000000    -1.721000000    -4.331000000
H    -0.080000000    -1.061000000    -2.982000000
C     0.672000000     1.552000000    -4.677000000
C     1.961000000     0.926000000    -5.241000000
H     2.590000000     1.630000000    -5.790000000
H     1.757000000     0.223000000    -6.051000000
C     2.714000000     0.288000000    -4.083000000
C     2.447000000    -1.057000000    -3.803000000
C     3.172000000    -1.775000000    -2.810000000
H     2.916000000    -2.812000000    -2.606000000
C     4.127000000    -1.019000000    -2.107000000
O     4.737000000    -1.603000000    -1.056000000
C     4.022000000    -1.380000000     0.234000000
H     3.010000000    -0.986000000     0.053000000
C     3.999000000    -2.664000000     1.108000000
C     3.869000000    -2.592000000     2.501000000
H     3.742000000    -1.622000000     2.975000000
C     3.888000000    -3.864000000     0.501000000
H     3.887000000    -3.911000000    -0.585000000
C     3.716000000    -5.034000000     1.231000000
O     3.555000000    -6.280000000     0.578000000
C     3.598000000    -4.996000000     2.595000000
H     3.190000000    -5.876000000     3.086000000
C     3.596000000    -3.731000000     3.293000000
O     3.227000000    -3.684000000     4.597000000
C     3.250000000    -2.519000000     5.337000000
C     2.064000000    -1.911000000     5.754000000
H     1.114000000    -2.198000000     5.311000000
C     4.459000000    -2.121000000     5.837000000
H     5.357000000    -2.663000000     5.551000000
C     4.466000000    -1.081000000     6.806000000
H     5.439000000    -0.862000000     7.238000000
C     3.218000000    -0.482000000     7.209000000
H     3.244000000     0.347000000     7.912000000
C     2.000000000    -0.917000000     6.656000000
O     0.815000000    -0.292000000     7.015000000
C     0.194000000     0.591000000     6.108000000
C    -1.158000000     0.932000000     6.312000000
H    -1.760000000     0.565000000     7.140000000
C    -1.771000000     1.926000000     5.601000000
O    -3.017000000     2.358000000     6.008000000
C    -4.012000000     2.775000000     5.086000000
C    -4.413000000     2.029000000     3.997000000
H    -4.112000000     1.001000000     3.809000000
C    -4.464000000     4.074000000     5.284000000
H    -4.089000000     4.592000000     6.163000000
C    -5.299000000     4.667000000     4.366000000
H    -5.565000000     5.721000000     4.397000000
C    -5.773000000     3.912000000     3.258000000
H    -6.426000000     4.323000000     2.492000000
C    -5.353000000     2.583000000     3.116000000
O    -5.926000000     1.668000000     2.252000000
C    -5.475000000     1.525000000     0.973000000
C    -6.254000000     0.828000000     0.062000000
H    -7.170000000     0.353000000     0.405000000
C    -5.912000000     0.841000000    -1.308000000
O    -6.725000000     0.197000000    -2.251000000
C    -6.316000000    -0.685000000    -3.247000000
C    -5.512000000    -1.788000000    -2.944000000
H    -4.997000000    -1.791000000    -1.987000000
C    -7.071000000    -0.675000000    -4.436000000
H    -7.728000000     0.158000000    -4.676000000
C    -6.873000000    -1.698000000    -5.391000000
H    -7.331000000    -1.633000000    -6.375000000
C    -5.956000000    -2.721000000    -5.063000000
H    -5.912000000    -3.670000000    -5.592000000
C    -5.197000000    -2.693000000    -3.953000000
O    -4.320000000    -3.749000000    -3.692000000
C    -2.956000000    -3.814000000    -3.732000000
C    -2.327000000    -5.034000000    -3.283000000
H    -2.975000000    -5.853000000    -2.981000000
C    -0.975000000    -4.925000000    -2.907000000
O    -0.404000000    -5.866000000    -2.077000000
C     0.927000000    -6.289000000    -1.966000000
C     1.611000000    -6.936000000    -2.986000000
H     1.152000000    -6.980000000    -3.970000000
C     2.889000000    -7.402000000    -2.761000000
H     3.426000000    -7.894000000    -3.567000000
C     3.598000000    -7.137000000    -1.604000000
H     4.562000000    -7.601000000    -1.408000000
C     2.948000000    -6.429000000    -0.569000000
C     1.633000000    -6.045000000    -0.755000000
H     1.012000000    -5.467000000    -0.075000000
C    -1.607000000    -2.089000000     0.364000000
H    -1.744000000    -3.115000000     0.031000000
C    -0.517000000    -1.496000000    -0.282000000
H     0.095000000    -2.088000000    -0.957000000
C    -0.305000000    -0.172000000    -0.023000000
H     0.302000000     0.390000000    -0.651000000
C    -1.076000000     0.511000000     0.897000000
H    -0.866000000     1.576000000     0.959000000
C    -2.023000000    -0.186000000     1.674000000
H    -2.509000000     0.307000000     2.512000000
C    -2.317000000    -1.483000000     1.367000000
C    -3.454000000    -2.120000000     2.144000000
O    -3.880000000    -1.679000000     3.160000000
O    -3.846000000    -3.219000000     1.763000000
O    -7.726000000    -0.797000000     5.962000000
H    -8.321000000    -1.450000000     5.595000000
H    -6.862000000    -1.052000000     5.639000000
O     0.358000000    -2.543000000     2.673000000
H    -0.319000000    -2.211000000     3.261000000
H     0.306000000    -1.977000000     1.903000000
O    -3.039000000    -6.505000000     4.010000000
H    -3.539000000    -6.896000000     4.726000000
H    -3.601000000    -5.802000000     3.682000000
O    -6.716000000    -1.349000000     3.017000000
H    -5.786000000    -1.469000000     3.210000000
H    -6.816000000    -1.662000000     2.118000000
O    -4.574000000    -1.561000000     5.637000000
H    -3.725000000    -1.536000000     6.078000000
H    -4.365000000    -1.458000000     4.709000000
O    -0.345000000    -5.088000000     3.737000000
H    -0.024000000    -4.401000000     3.153000000
H    -1.243000000    -5.247000000     3.447000000
O    -1.330000000    -6.889000000     0.799000000
H    -1.097000000    -7.320000000     1.621000000
H    -1.695000000    -7.589000000     0.257000000
O     0.953000000    -4.821000000     5.992000000
H     1.832000000    -4.785000000     5.613000000
H     0.369000000    -4.894000000     5.237000000
O    -5.826000000    -4.661000000    -1.433000000
H    -4.995000000    -4.792000000    -0.975000000
H    -5.573000000    -4.432000000    -2.327000000
O    -1.412000000    -1.766000000     4.360000000
H    -2.277000000    -1.788000000     3.952000000
H    -1.562000000    -2.070000000     5.256000000
O    -9.436000000    -2.022000000     2.961000000
H    -8.481000000    -1.957000000     2.968000000
H    -9.736000000    -1.125000000     2.816000000
O    -6.403000000    -2.902000000     0.761000000
H    -5.630000000    -2.937000000     1.324000000
H    -6.225000000    -3.540000000     0.069000000
O    -5.174000000    -4.887000000     3.329000000
H    -5.011000000    -4.134000000     2.761000000
H    -5.852000000    -5.387000000     2.874000000
O    -6.867000000    -5.797000000     1.480000000
H    -7.715000000    -5.737000000     1.040000000
H    -6.261000000    -6.074000000     0.793000000
O    -5.488000000    -4.232000000     5.990000000
H    -4.989000000    -3.421000000     5.893000000
H    -5.295000000    -4.728000000     5.194000000
O    -8.462000000    -2.119000000    -0.853000000
H    -8.059000000    -2.511000000    -1.627000000
H    -7.860000000    -2.326000000    -0.138000000
O    -3.437000000    -5.238000000    -0.174000000
H    -3.503000000    -4.576000000     0.514000000
H    -2.552000000    -5.591000000    -0.081000000
O    -5.039000000    -0.112000000     8.055000000
H    -5.223000000    -0.381000000     7.155000000
H    -4.228000000     0.392000000     7.993000000
O    -2.012000000    -2.562000000     6.964000000
H    -1.915000000    -2.022000000     7.748000000
H    -1.787000000    -3.446000000     7.252000000
