215
-1439.81196
C    -3.073000000     2.839000000     3.283000000
H    -3.264000000     3.716000000     2.670000000
C    -1.830000000     2.304000000     3.623000000
C    -1.766000000     1.214000000     4.469000000
H    -0.806000000     0.729000000     4.628000000
C    -0.520000000     2.735000000     3.018000000
O    -0.715000000     4.164000000     2.667000000
H    -0.411000000     2.052000000     2.163000000
O     0.672000000     2.713000000     3.805000000
C     1.804000000     2.402000000     3.252000000
C     2.199000000     1.070000000     3.478000000
H     1.559000000     0.458000000     4.108000000
C     3.326000000     0.597000000     2.840000000
O     3.676000000    -0.727000000     3.127000000
C     4.195000000     1.501000000     2.104000000
C     5.444000000     0.961000000     1.425000000
H     5.928000000     1.920000000     1.226000000
C     5.072000000     0.288000000     0.101000000
C     5.026000000     1.004000000    -1.079000000
H     5.342000000     2.043000000    -1.115000000
H     6.005000000     0.323000000     2.110000000
C     3.731000000     2.811000000     1.927000000
H     4.271000000     3.460000000     1.243000000
C     2.526000000     3.267000000     2.402000000
C     2.042000000     4.675000000     2.058000000
H     2.912000000     5.312000000     1.884000000
H     1.608000000     5.062000000     2.982000000
C     1.026000000     4.734000000     1.023000000
C     1.430000000     5.028000000    -0.285000000
H     2.479000000     5.267000000    -0.443000000
C    -0.303000000     4.551000000     1.360000000
C    -1.246000000     4.545000000     0.369000000
H    -2.289000000     4.387000000     0.630000000
C    -0.943000000     4.721000000    -0.958000000
O    -1.852000000     4.483000000    -1.944000000
C    -1.850000000     3.225000000    -2.441000000
C    -3.261000000     2.563000000    -2.392000000
C    -3.392000000     1.195000000    -2.704000000
H    -2.515000000     0.704000000    -3.116000000
C    -4.320000000     3.220000000    -1.822000000
H    -4.230000000     4.266000000    -1.540000000
O    -1.161000000     3.246000000    -3.692000000
H    -1.187000000     2.564000000    -1.863000000
C     0.452000000     4.940000000    -1.291000000
C     0.861000000     5.003000000    -2.777000000
H     1.738000000     5.647000000    -2.873000000
H     0.093000000     5.457000000    -3.407000000
C     1.152000000     3.556000000    -3.265000000
C     2.491000000     3.033000000    -3.107000000
H     3.321000000     3.578000000    -2.663000000
C     0.125000000     2.775000000    -3.714000000
C     0.359000000     1.440000000    -4.041000000
H    -0.435000000     0.881000000    -4.528000000
C     1.664000000     0.905000000    -3.967000000
O     1.849000000    -0.449000000    -4.260000000
C     2.215000000    -1.477000000    -3.309000000
C     1.541000000    -2.764000000    -3.691000000
C     0.191000000    -2.804000000    -4.034000000
H    -0.394000000    -1.909000000    -4.230000000
C     2.251000000    -3.964000000    -3.511000000
H     3.324000000    -3.958000000    -3.339000000
O     3.623000000    -1.567000000    -3.319000000
H     1.732000000    -1.181000000    -2.366000000
C     2.739000000     1.721000000    -3.496000000
C     4.257000000     1.237000000    -3.483000000
H     4.938000000     2.090000000    -3.522000000
H     4.454000000     0.731000000    -4.431000000
C     4.562000000     0.410000000    -2.240000000
C     4.251000000    -0.935000000    -2.244000000
C     4.444000000    -1.750000000    -1.143000000
H     4.118000000    -2.787000000    -1.101000000
C     4.774000000    -1.133000000     0.101000000
O     4.652000000    -1.879000000     1.237000000
C     3.454000000    -1.661000000     2.051000000
H     2.636000000    -1.327000000     1.397000000
C     2.752000000    -2.957000000     2.337000000
C     1.674000000    -2.884000000     3.224000000
H     1.470000000    -1.943000000     3.729000000
C     2.948000000    -4.157000000     1.643000000
H     3.751000000    -4.190000000     0.912000000
C     2.165000000    -5.280000000     1.741000000
O     2.457000000    -6.467000000     1.152000000
C     1.226000000    -5.185000000     2.774000000
H     0.593000000    -6.060000000     2.898000000
C     0.941000000    -4.007000000     3.512000000
O    -0.055000000    -3.982000000     4.436000000
C    -0.318000000    -3.036000000     5.349000000
C    -1.375000000    -2.182000000     5.177000000
H    -1.905000000    -2.306000000     4.235000000
C     0.633000000    -2.788000000     6.366000000
H     1.498000000    -3.438000000     6.471000000
C     0.395000000    -1.820000000     7.312000000
H     1.121000000    -1.501000000     8.056000000
C    -0.757000000    -1.049000000     7.227000000
H    -1.049000000    -0.289000000     7.947000000
C    -1.593000000    -1.165000000     6.089000000
O    -2.758000000    -0.431000000     5.907000000
C    -2.884000000     0.572000000     4.967000000
C    -4.084000000     1.151000000     4.658000000
H    -4.892000000     0.728000000     5.248000000
C    -4.201000000     2.231000000     3.820000000
O    -5.481000000     2.715000000     3.764000000
C    -6.161000000     3.296000000     2.704000000
C    -5.926000000     3.016000000     1.328000000
H    -5.080000000     2.378000000     1.085000000
C    -7.139000000     4.237000000     3.003000000
H    -7.285000000     4.646000000     4.000000000
C    -7.969000000     4.807000000     2.014000000
H    -8.780000000     5.447000000     2.353000000
C    -7.772000000     4.399000000     0.726000000
H    -8.418000000     4.837000000    -0.031000000
C    -6.734000000     3.567000000     0.347000000
O    -6.580000000     3.307000000    -0.977000000
C    -5.513000000     2.613000000    -1.551000000
C    -5.729000000     1.262000000    -1.906000000
H    -6.687000000     0.769000000    -1.764000000
C    -4.591000000     0.551000000    -2.356000000
O    -4.798000000    -0.788000000    -2.645000000
C    -4.256000000    -1.381000000    -3.764000000
C    -3.335000000    -2.357000000    -3.573000000
H    -2.985000000    -2.579000000    -2.568000000
C    -4.584000000    -0.943000000    -5.058000000
H    -5.121000000    -0.016000000    -5.242000000
C    -4.125000000    -1.680000000    -6.138000000
H    -4.279000000    -1.300000000    -7.145000000
C    -3.228000000    -2.702000000    -5.914000000
H    -2.743000000    -3.160000000    -6.772000000
C    -2.765000000    -3.014000000    -4.622000000
O    -1.815000000    -4.044000000    -4.456000000
C    -0.471000000    -4.012000000    -4.183000000
C     0.254000000    -5.207000000    -4.116000000
H    -0.278000000    -6.110000000    -4.405000000
C     1.603000000    -5.158000000    -3.674000000
O     2.262000000    -6.286000000    -3.479000000
C     3.065000000    -6.373000000    -2.420000000
C     4.396000000    -6.808000000    -2.449000000
H     4.925000000    -6.876000000    -3.396000000
C     5.105000000    -7.191000000    -1.286000000
H     6.164000000    -7.432000000    -1.242000000
C     4.446000000    -7.075000000    -0.021000000
H     4.944000000    -7.510000000     0.842000000
C     3.139000000    -6.629000000     0.008000000
C     2.409000000    -6.261000000    -1.167000000
H     1.366000000    -5.973000000    -1.065000000
C    -0.602000000    -2.405000000     0.225000000
H    -0.242000000    -3.429000000     0.149000000
C     0.341000000    -1.400000000    -0.029000000
H     1.373000000    -1.724000000    -0.137000000
C    -0.018000000    -0.092000000    -0.089000000
H     0.728000000     0.763000000    -0.256000000
C    -1.349000000     0.227000000     0.178000000
H    -1.631000000     1.273000000     0.090000000
C    -2.308000000    -0.772000000     0.483000000
H    -3.351000000    -0.496000000     0.613000000
C    -1.954000000    -2.100000000     0.509000000
C    -2.918000000    -3.176000000     1.026000000
O    -3.819000000    -2.799000000     1.699000000
O    -2.869000000    -4.359000000     0.715000000
O    -5.056000000    -7.953000000    -0.944000000
H    -4.164000000    -7.615000000    -1.021000000
H    -5.326000000    -7.717000000    -0.056000000
O    -5.852000000    -7.632000000     1.608000000
H    -6.144000000    -8.294000000     2.235000000
H    -5.958000000    -6.800000000     2.071000000
O    -9.415000000    -4.665000000     1.098000000
H    -9.644000000    -4.149000000     0.324000000
H    -8.644000000    -4.226000000     1.459000000
O    -8.072000000    -3.113000000     3.288000000
H    -7.673000000    -2.413000000     2.772000000
H    -7.854000000    -2.896000000     4.195000000
O    -5.388000000    -1.262000000     2.916000000
H    -4.799000000    -1.873000000     2.474000000
H    -4.869000000    -0.907000000     3.638000000
O    -4.314000000    -3.867000000     4.542000000
H    -4.620000000    -3.766000000     3.641000000
H    -3.754000000    -4.644000000     4.519000000
O    -4.649000000    -2.766000000     7.137000000
H    -4.427000000    -2.975000000     6.230000000
H    -3.876000000    -3.023000000     7.639000000
O    -6.632000000    -5.705000000     3.766000000
H    -6.899000000    -4.834000000     3.472000000
H    -6.853000000    -5.722000000     4.697000000
O    -4.895000000    -4.514000000    -1.035000000
H    -4.570000000    -4.757000000    -1.902000000
H    -4.121000000    -4.541000000    -0.473000000
O    -6.246000000    -0.650000000     0.429000000
H    -6.350000000    -1.539000000     0.088000000
H    -6.029000000    -0.773000000     1.353000000
O    -1.939000000    -5.875000000     5.584000000
H    -1.918000000    -5.369000000     6.397000000
H    -1.099000000    -6.332000000     5.564000000
O    -6.178000000    -3.750000000     1.416000000
H    -5.950000000    -4.306000000     0.671000000
H    -5.378000000    -3.258000000     1.601000000
O    -8.455000000    -6.847000000    -0.470000000
H    -9.107000000    -6.159000000    -0.603000000
H    -7.734000000    -6.410000000    -0.017000000
O    -2.041000000    -6.332000000    -1.164000000
H    -2.497000000    -6.047000000    -1.955000000
H    -2.211000000    -5.639000000    -0.526000000
O    -4.159000000    -5.513000000    -3.493000000
H    -3.610000000    -5.487000000    -4.277000000
H    -4.875000000    -6.106000000    -3.723000000
O    -2.223000000    -8.411000000     3.823000000
H    -2.690000000    -7.683000000     3.414000000
H    -1.454000000    -8.006000000     4.225000000
O    -6.734000000    -2.507000000    -1.624000000
H    -6.181000000    -3.211000000    -1.287000000
H    -6.127000000    -1.923000000    -2.079000000
O    -3.443000000    -6.499000000     2.375000000
H    -3.272000000    -5.810000000     1.732000000
H    -4.243000000    -6.922000000     2.064000000
O    -0.278000000    -8.443000000    -1.111000000
H    -0.610000000    -8.670000000    -1.979000000
H    -0.806000000    -7.691000000    -0.842000000
