215
-1434.75182
C    -2.969000000     3.226000000     3.154000000
H    -3.047000000     4.100000000     2.513000000
C    -1.754000000     2.647000000     3.487000000
C    -1.800000000     1.494000000     4.232000000
H    -0.923000000     0.886000000     4.443000000
C    -0.453000000     2.985000000     2.759000000
O    -0.586000000     4.380000000     2.267000000
H    -0.368000000     2.303000000     1.900000000
O     0.717000000     2.895000000     3.666000000
C     1.910000000     2.479000000     3.191000000
C     2.381000000     1.197000000     3.565000000
H     1.802000000     0.713000000     4.347000000
C     3.454000000     0.638000000     2.984000000
O     3.731000000    -0.615000000     3.376000000
C     4.169000000     1.368000000     2.029000000
C     5.427000000     0.752000000     1.414000000
H     6.048000000     1.551000000     1.002000000
C     5.105000000    -0.089000000     0.124000000
C     4.906000000     0.594000000    -1.069000000
H     5.066000000     1.664000000    -0.965000000
H     5.960000000     0.138000000     2.143000000
C     3.787000000     2.669000000     1.685000000
H     4.181000000     3.227000000     0.840000000
C     2.632000000     3.235000000     2.273000000
C     2.317000000     4.665000000     1.900000000
H     3.244000000     5.180000000     1.638000000
H     1.932000000     5.160000000     2.794000000
C     1.297000000     4.715000000     0.727000000
C     1.828000000     4.725000000    -0.595000000
H     2.889000000     4.782000000    -0.826000000
C    -0.048000000     4.672000000     1.003000000
C    -0.894000000     4.571000000    -0.114000000
H    -1.962000000     4.400000000    -0.007000000
C    -0.437000000     4.655000000    -1.392000000
O    -1.430000000     4.396000000    -2.311000000
C    -1.375000000     3.000000000    -2.754000000
C    -2.792000000     2.413000000    -2.774000000
C    -2.951000000     1.084000000    -3.153000000
H    -2.033000000     0.522000000    -3.305000000
C    -3.847000000     3.122000000    -2.148000000
H    -3.664000000     4.149000000    -1.844000000
O    -0.790000000     2.880000000    -4.073000000
H    -0.800000000     2.362000000    -2.068000000
C     0.962000000     4.667000000    -1.667000000
C     1.318000000     4.640000000    -3.170000000
H     2.224000000     5.247000000    -3.224000000
H     0.589000000     5.109000000    -3.835000000
C     1.594000000     3.268000000    -3.683000000
C     2.858000000     2.683000000    -3.591000000
H     3.665000000     3.339000000    -3.274000000
C     0.540000000     2.456000000    -4.129000000
C     0.677000000     1.144000000    -4.501000000
H    -0.093000000     0.456000000    -4.840000000
C     1.948000000     0.497000000    -4.252000000
O     2.011000000    -0.839000000    -4.516000000
C     2.119000000    -1.782000000    -3.481000000
C     1.215000000    -2.966000000    -3.605000000
C     0.133000000    -2.985000000    -4.502000000
H    -0.024000000    -2.168000000    -5.202000000
C     1.343000000    -4.004000000    -2.727000000
H     1.920000000    -3.905000000    -1.811000000
O     3.492000000    -2.075000000    -3.138000000
H     1.835000000    -1.286000000    -2.541000000
C     3.061000000     1.332000000    -3.861000000
C     4.339000000     0.614000000    -3.564000000
H     5.170000000     1.322000000    -3.596000000
H     4.538000000    -0.097000000    -4.368000000
C     4.394000000    -0.064000000    -2.198000000
C     4.015000000    -1.387000000    -2.079000000
C     4.158000000    -2.045000000    -0.809000000
H     3.909000000    -3.090000000    -0.643000000
C     4.592000000    -1.389000000     0.328000000
O     4.510000000    -1.934000000     1.569000000
C     3.442000000    -1.614000000     2.414000000
H     2.569000000    -1.257000000     1.849000000
C     2.844000000    -2.868000000     3.144000000
C     2.035000000    -2.748000000     4.259000000
H     1.817000000    -1.768000000     4.676000000
C     2.949000000    -4.098000000     2.582000000
H     3.481000000    -4.297000000     1.655000000
C     2.481000000    -5.245000000     3.268000000
O     2.507000000    -6.472000000     2.616000000
C     1.679000000    -5.121000000     4.421000000
H     1.215000000    -5.992000000     4.875000000
C     1.390000000    -3.854000000     4.885000000
O     0.279000000    -3.687000000     5.715000000
C    -0.161000000    -2.550000000     6.204000000
C    -1.424000000    -2.045000000     5.736000000
H    -2.046000000    -2.545000000     4.997000000
C     0.550000000    -1.878000000     7.177000000
H     1.456000000    -2.289000000     7.614000000
C     0.206000000    -0.578000000     7.528000000
H     0.845000000    -0.022000000     8.210000000
C    -0.932000000    -0.022000000     6.967000000
H    -1.158000000     1.022000000     7.168000000
C    -1.795000000    -0.754000000     6.160000000
O    -2.943000000    -0.180000000     5.588000000
C    -2.952000000     0.992000000     4.836000000
C    -4.144000000     1.543000000     4.362000000
H    -5.012000000     1.071000000     4.814000000
C    -4.157000000     2.696000000     3.612000000
O    -5.390000000     3.256000000     3.542000000
C    -5.911000000     3.712000000     2.316000000
C    -5.732000000     2.987000000     1.100000000
H    -5.244000000     2.017000000     1.145000000
C    -6.824000000     4.723000000     2.348000000
H    -6.937000000     5.289000000     3.269000000
C    -7.512000000     5.103000000     1.181000000
H    -8.177000000     5.962000000     1.194000000
C    -7.095000000     4.631000000    -0.057000000
H    -7.426000000     5.029000000    -1.013000000
C    -6.316000000     3.466000000    -0.072000000
O    -6.160000000     3.046000000    -1.360000000
C    -5.094000000     2.417000000    -1.897000000
C    -5.297000000     1.137000000    -2.457000000
H    -6.261000000     0.634000000    -2.477000000
C    -4.186000000     0.427000000    -2.964000000
O    -4.324000000    -0.887000000    -3.241000000
C    -4.045000000    -1.524000000    -4.399000000
C    -3.169000000    -2.542000000    -4.370000000
H    -2.704000000    -2.642000000    -3.393000000
C    -4.678000000    -1.162000000    -5.644000000
H    -5.471000000    -0.419000000    -5.699000000
C    -4.202000000    -1.761000000    -6.785000000
H    -4.622000000    -1.514000000    -7.756000000
C    -3.298000000    -2.875000000    -6.766000000
H    -2.930000000    -3.284000000    -7.704000000
C    -2.707000000    -3.227000000    -5.514000000
O    -1.753000000    -4.165000000    -5.490000000
C    -0.737000000    -4.099000000    -4.581000000
C    -0.625000000    -5.108000000    -3.679000000
H    -1.289000000    -5.968000000    -3.634000000
C     0.422000000    -5.066000000    -2.731000000
O     0.353000000    -5.921000000    -1.693000000
C     1.453000000    -6.320000000    -0.990000000
C     2.550000000    -6.813000000    -1.589000000
H     2.530000000    -6.881000000    -2.673000000
C     3.718000000    -7.068000000    -0.837000000
H     4.606000000    -7.474000000    -1.315000000
C     3.673000000    -7.011000000     0.582000000
H     4.564000000    -7.299000000     1.134000000
C     2.489000000    -6.617000000     1.207000000
C     1.353000000    -6.350000000     0.412000000
H     0.461000000    -5.869000000     0.804000000
C    -0.286000000    -2.108000000     0.574000000
H     0.106000000    -3.105000000     0.756000000
C     0.580000000    -1.124000000     0.017000000
H     1.615000000    -1.360000000    -0.215000000
C     0.196000000     0.202000000    -0.176000000
H     0.991000000     0.937000000    -0.582000000
C    -1.107000000     0.500000000     0.109000000
H    -1.339000000     1.561000000     0.053000000
C    -2.035000000    -0.420000000     0.532000000
H    -3.069000000    -0.105000000     0.642000000
C    -1.622000000    -1.772000000     0.827000000
C    -2.638000000    -2.842000000     1.157000000
O    -3.802000000    -2.529000000     1.327000000
O    -2.358000000    -3.971000000     1.427000000
O    -7.613000000    -6.880000000    -0.041000000
H    -6.717000000    -7.098000000     0.217000000
H    -7.887000000    -7.612000000    -0.594000000
O    -0.168000000    -8.460000000     3.656000000
H     0.632000000    -8.260000000     4.142000000
H    -0.177000000    -7.827000000     2.938000000
O    -4.787000000    -6.620000000     0.305000000
H    -4.044000000    -6.073000000     0.051000000
H    -4.431000000    -7.508000000     0.336000000
O    -5.786000000    -1.417000000     3.151000000
H    -4.928000000    -1.754000000     2.892000000
H    -6.200000000    -1.158000000     2.328000000
O    -2.903000000    -8.355000000     3.285000000
H    -3.502000000    -8.419000000     4.029000000
H    -2.036000000    -8.509000000     3.661000000
O    -7.822000000    -4.595000000     1.984000000
H    -7.755000000    -5.368000000     1.424000000
H    -6.915000000    -4.339000000     2.149000000
O    -3.490000000    -9.055000000     0.650000000
H    -3.227000000    -8.939000000     1.563000000
H    -2.674000000    -9.250000000     0.189000000
O    -5.021000000    -4.837000000     2.499000000
H    -4.896000000    -5.497000000     1.817000000
H    -4.436000000    -4.122000000     2.249000000
O    -6.907000000    -7.347000000     3.582000000
H    -6.249000000    -6.672000000     3.749000000
H    -7.072000000    -7.738000000     4.440000000
O    -7.194000000    -5.020000000    -2.528000000
H    -6.395000000    -5.440000000    -2.845000000
H    -7.314000000    -5.370000000    -1.645000000
O    -8.550000000    -1.958000000     0.611000000
H    -8.335000000    -2.677000000     1.205000000
H    -7.714000000    -1.720000000     0.210000000
O    -4.998000000    -2.601000000     6.516000000
H    -4.949000000    -3.330000000     7.135000000
H    -4.086000000    -2.405000000     6.305000000
O    -1.408000000    -5.998000000     6.324000000
H    -0.912000000    -5.180000000     6.295000000
H    -1.746000000    -6.105000000     5.435000000
O    -5.879000000    -1.869000000     0.028000000
H    -5.756000000    -2.112000000    -0.889000000
H    -5.080000000    -2.166000000     0.464000000
O    -7.363000000    -1.542000000     5.285000000
H    -6.673000000    -1.751000000     5.915000000
H    -6.965000000    -1.706000000     4.430000000
O    -2.083000000    -6.003000000    -0.335000000
H    -1.858000000    -5.612000000    -1.179000000
H    -2.081000000    -5.269000000     0.279000000
O    -6.155000000    -4.761000000     5.197000000
H    -5.368000000    -4.888000000     4.667000000
H    -6.138000000    -3.833000000     5.433000000
O    -2.083000000    -5.570000000     3.772000000
H    -1.994000000    -4.830000000     3.172000000
H    -2.617000000    -6.204000000     3.294000000
O    -1.219000000    -8.414000000    -1.376000000
H    -0.791000000    -8.308000000    -2.226000000
H    -1.447000000    -7.524000000    -1.109000000
