215
-1440.34769
C    -2.047000000     2.748000000     4.060000000
H    -2.006000000     3.664000000     3.477000000
C    -0.813000000     2.077000000     4.288000000
C    -0.877000000     0.871000000     5.035000000
H    -0.012000000     0.224000000     5.158000000
C     0.452000000     2.444000000     3.470000000
O     0.558000000     3.856000000     3.296000000
H     0.355000000     1.860000000     2.543000000
O     1.709000000     1.901000000     4.143000000
C     2.690000000     1.427000000     3.331000000
C     2.830000000     0.062000000     3.365000000
H     2.160000000    -0.523000000     3.989000000
C     3.726000000    -0.582000000     2.512000000
O     3.763000000    -1.967000000     2.497000000
C     4.523000000     0.190000000     1.664000000
C     5.572000000    -0.447000000     0.768000000
H     6.319000000     0.311000000     0.522000000
C     4.838000000    -0.826000000    -0.509000000
C     4.804000000     0.075000000    -1.589000000
H     5.215000000     1.079000000    -1.526000000
H     6.013000000    -1.342000000     1.211000000
C     4.482000000     1.613000000     1.691000000
H     5.068000000     2.270000000     1.054000000
C     3.520000000     2.208000000     2.514000000
C     3.341000000     3.764000000     2.400000000
H     4.328000000     4.122000000     2.101000000
H     3.288000000     4.241000000     3.381000000
C     2.222000000     4.255000000     1.569000000
C     2.465000000     4.423000000     0.200000000
H     3.470000000     4.412000000    -0.213000000
C     0.871000000     4.262000000     2.031000000
C    -0.127000000     4.548000000     1.122000000
H    -1.181000000     4.518000000     1.385000000
C     0.149000000     4.830000000    -0.164000000
O    -0.839000000     4.852000000    -1.061000000
C    -1.176000000     3.594000000    -1.644000000
C    -2.623000000     3.301000000    -1.693000000
C    -3.089000000     2.173000000    -2.424000000
H    -2.373000000     1.625000000    -3.031000000
C    -3.561000000     3.924000000    -0.823000000
H    -3.406000000     4.701000000    -0.078000000
O    -0.745000000     3.578000000    -3.074000000
H    -0.628000000     2.775000000    -1.154000000
C     1.470000000     4.750000000    -0.703000000
C     1.815000000     4.822000000    -2.138000000
H     2.686000000     5.470000000    -2.256000000
H     1.026000000     5.483000000    -2.502000000
C     1.738000000     3.533000000    -2.927000000
C     2.951000000     2.825000000    -3.125000000
H     3.934000000     3.146000000    -2.791000000
C     0.533000000     3.024000000    -3.392000000
C     0.510000000     1.761000000    -3.989000000
H    -0.385000000     1.211000000    -4.269000000
C     1.731000000     1.044000000    -4.085000000
O     1.607000000    -0.172000000    -4.743000000
C     1.507000000    -1.302000000    -3.899000000
C     0.446000000    -2.306000000    -4.349000000
C    -0.592000000    -1.838000000    -5.100000000
H    -0.666000000    -0.775000000    -5.315000000
C     0.519000000    -3.633000000    -3.919000000
H     1.405000000    -3.933000000    -3.367000000
O     2.728000000    -1.933000000    -3.770000000
H     1.197000000    -0.887000000    -2.928000000
C     2.920000000     1.577000000    -3.731000000
C     4.222000000     0.790000000    -3.854000000
H     5.099000000     1.440000000    -3.831000000
H     4.250000000     0.354000000    -4.855000000
C     4.211000000    -0.266000000    -2.735000000
C     3.630000000    -1.499000000    -2.793000000
C     3.731000000    -2.481000000    -1.812000000
H     3.193000000    -3.426000000    -1.831000000
C     4.316000000    -2.141000000    -0.644000000
O     4.102000000    -2.984000000     0.383000000
C     3.067000000    -2.632000000     1.442000000
H     2.349000000    -1.990000000     0.910000000
C     2.194000000    -3.817000000     1.888000000
C     1.716000000    -3.859000000     3.197000000
H     2.154000000    -3.192000000     3.935000000
C     1.642000000    -4.678000000     0.954000000
H     1.917000000    -4.624000000    -0.096000000
C     0.709000000    -5.674000000     1.361000000
O     0.213000000    -6.628000000     0.469000000
C     0.289000000    -5.706000000     2.705000000
H    -0.355000000    -6.490000000     3.096000000
C     0.744000000    -4.743000000     3.630000000
O     0.291000000    -4.764000000     4.958000000
C    -0.039000000    -3.648000000     5.794000000
C    -0.980000000    -2.661000000     5.552000000
H    -1.620000000    -2.775000000     4.681000000
C     0.836000000    -3.476000000     6.804000000
H     1.405000000    -4.356000000     7.092000000
C     0.761000000    -2.454000000     7.717000000
H     1.436000000    -2.431000000     8.568000000
C    -0.294000000    -1.547000000     7.601000000
H    -0.493000000    -0.780000000     8.345000000
C    -1.174000000    -1.688000000     6.510000000
O    -2.217000000    -0.735000000     6.304000000
C    -2.073000000     0.405000000     5.611000000
C    -3.196000000     1.215000000     5.498000000
H    -4.075000000     0.767000000     5.955000000
C    -3.195000000     2.409000000     4.778000000
O    -4.453000000     3.118000000     4.744000000
C    -4.850000000     4.001000000     3.678000000
C    -4.937000000     3.557000000     2.372000000
H    -4.709000000     2.569000000     1.979000000
C    -5.262000000     5.262000000     4.077000000
H    -5.150000000     5.555000000     5.118000000
C    -5.589000000     6.189000000     3.121000000
H    -5.866000000     7.155000000     3.535000000
C    -5.594000000     5.803000000     1.774000000
H    -5.878000000     6.536000000     1.024000000
C    -5.320000000     4.510000000     1.392000000
O    -5.741000000     4.128000000     0.131000000
C    -4.887000000     3.553000000    -0.767000000
C    -5.277000000     2.386000000    -1.514000000
H    -6.329000000     2.123000000    -1.442000000
C    -4.357000000     1.688000000    -2.339000000
O    -4.713000000     0.404000000    -2.871000000
C    -4.491000000     0.104000000    -4.209000000
C    -3.806000000    -1.026000000    -4.612000000
H    -3.369000000    -1.673000000    -3.856000000
C    -5.133000000     0.952000000    -5.156000000
H    -5.816000000     1.653000000    -4.683000000
C    -4.990000000     0.653000000    -6.477000000
H    -5.472000000     1.294000000    -7.211000000
C    -4.117000000    -0.405000000    -6.842000000
H    -3.946000000    -0.500000000    -7.911000000
C    -3.515000000    -1.244000000    -5.943000000
O    -2.699000000    -2.335000000    -6.249000000
C    -1.605000000    -2.694000000    -5.541000000
C    -1.594000000    -4.060000000    -5.022000000
H    -2.332000000    -4.764000000    -5.399000000
C    -0.492000000    -4.532000000    -4.311000000
O    -0.472000000    -5.910000000    -4.205000000
C     0.273000000    -6.477000000    -3.198000000
C     1.412000000    -7.292000000    -3.473000000
H     1.687000000    -7.509000000    -4.502000000
C     2.129000000    -7.855000000    -2.433000000
H     2.952000000    -8.538000000    -2.625000000
C     1.650000000    -7.688000000    -1.124000000
H     2.197000000    -8.158000000    -0.310000000
C     0.556000000    -6.875000000    -0.890000000
C    -0.119000000    -6.237000000    -1.895000000
H    -0.999000000    -5.608000000    -1.783000000
C    -1.916000000    -2.083000000    -0.367000000
H    -2.220000000    -3.063000000    -0.727000000
C    -0.645000000    -1.665000000    -0.609000000
H    -0.052000000    -2.304000000    -1.259000000
C    -0.239000000    -0.426000000    -0.167000000
H     0.702000000     0.067000000    -0.425000000
C    -1.133000000     0.366000000     0.599000000
H    -0.805000000     1.355000000     0.907000000
C    -2.422000000    -0.032000000     0.863000000
H    -3.098000000     0.659000000     1.362000000
C    -2.831000000    -1.281000000     0.314000000
C    -4.211000000    -1.791000000     0.665000000
O    -5.037000000    -1.028000000     1.157000000
O    -4.392000000    -2.996000000     0.675000000
O    -7.944000000     2.101000000     3.423000000
H    -8.056000000     2.145000000     2.473000000
H    -7.594000000     1.224000000     3.582000000
O    -7.015000000    -5.727000000    -2.687000000
H    -6.652000000    -6.088000000    -1.878000000
H    -7.960000000    -5.853000000    -2.602000000
O    -9.030000000    -2.406000000    -1.672000000
H    -8.865000000    -2.668000000    -2.578000000
H    -9.076000000    -3.231000000    -1.189000000
O    -7.361000000     0.636000000     0.886000000
H    -6.569000000     0.099000000     0.886000000
H    -7.747000000     0.493000000     0.021000000
O    -2.247000000    -8.119000000     1.467000000
H    -2.697000000    -7.489000000     0.904000000
H    -1.439000000    -8.326000000     0.997000000
O    -5.962000000    -7.457000000    -0.618000000
H    -5.771000000    -8.332000000    -0.955000000
H    -5.114000000    -7.014000000    -0.609000000
O    -5.409000000    -0.478000000     3.637000000
H    -5.523000000    -0.799000000     2.742000000
H    -4.553000000    -0.050000000     3.630000000
O    -4.377000000    -6.087000000     2.302000000
H    -3.898000000    -5.927000000     1.489000000
H    -4.460000000    -5.222000000     2.705000000
O    -6.912000000    -3.406000000     1.091000000
H    -6.057000000    -3.099000000     0.788000000
H    -6.943000000    -3.154000000     2.014000000
O    -6.461000000    -1.994000000     5.649000000
H    -7.288000000    -2.374000000     5.353000000
H    -6.157000000    -1.474000000     4.906000000
O    -3.842000000    -5.511000000    -2.819000000
H    -4.314000000    -4.678000000    -2.818000000
H    -4.131000000    -5.948000000    -3.620000000
O    -3.045000000    -7.679000000     4.048000000
H    -2.710000000    -7.940000000     3.190000000
H    -3.378000000    -6.792000000     3.916000000
O    -8.730000000     0.579000000    -1.574000000
H    -8.366000000     0.886000000    -2.404000000
H    -8.554000000    -0.362000000    -1.568000000
O    -5.556000000    -3.491000000    -2.428000000
H    -6.395000000    -3.941000000    -2.531000000
H    -5.527000000    -3.247000000    -1.503000000
O    -5.207000000    -4.901000000     6.173000000
H    -5.976000000    -5.363000000     5.839000000
H    -5.246000000    -4.040000000     5.758000000
O    -4.346000000    -3.452000000     3.418000000
H    -4.421000000    -3.250000000     2.485000000
H    -4.361000000    -2.598000000     3.850000000
O    -8.531000000    -2.284000000     3.326000000
H    -8.356000000    -1.595000000     2.685000000
H    -9.479000000    -2.408000000     3.292000000
O    -7.996000000    -5.838000000     0.742000000
H    -7.713000000    -4.948000000     0.953000000
H    -7.190000000    -6.298000000     0.509000000
O    -3.338000000    -5.587000000    -0.158000000
H    -3.297000000    -4.671000000     0.116000000
H    -3.519000000    -5.548000000    -1.097000000
