215
-1442.70417
C    -3.264000000    -3.426000000    -3.033000000
H    -3.550000000    -3.006000000    -3.994000000
C    -3.468000000    -2.813000000    -1.785000000
C    -3.227000000    -3.580000000    -0.687000000
H    -3.411000000    -3.142000000     0.291000000
C    -3.779000000    -1.361000000    -1.645000000
O    -4.102000000    -0.791000000    -2.968000000
H    -2.845000000    -0.903000000    -1.287000000
O    -4.832000000    -1.046000000    -0.723000000
C    -4.736000000    -0.021000000     0.176000000
C    -4.355000000    -0.356000000     1.449000000
H    -4.353000000    -1.391000000     1.782000000
C    -4.025000000     0.618000000     2.386000000
O    -3.341000000     0.254000000     3.510000000
C    -3.954000000     1.923000000     1.940000000
C    -3.533000000     3.019000000     2.872000000
H    -4.092000000     3.928000000     2.642000000
C    -2.033000000     3.327000000     2.776000000
C    -1.494000000     4.283000000     1.902000000
H    -2.212000000     4.853000000     1.317000000
H    -3.828000000     2.748000000     3.888000000
C    -4.465000000     2.313000000     0.721000000
H    -4.440000000     3.376000000     0.496000000
C    -4.791000000     1.337000000    -0.218000000
C    -5.197000000     1.642000000    -1.625000000
H    -5.586000000     2.662000000    -1.650000000
H    -6.020000000     1.018000000    -1.980000000
C    -3.982000000     1.602000000    -2.543000000
C    -3.223000000     2.771000000    -2.764000000
H    -3.655000000     3.643000000    -2.281000000
C    -3.566000000     0.439000000    -3.201000000
C    -2.504000000     0.494000000    -4.088000000
H    -2.240000000    -0.315000000    -4.764000000
C    -1.668000000     1.603000000    -4.136000000
O    -0.395000000     1.449000000    -4.649000000
C     0.614000000     1.312000000    -3.715000000
C     1.505000000     0.090000000    -3.988000000
C     2.694000000     0.024000000    -3.208000000
H     2.944000000     0.842000000    -2.537000000
C     1.098000000    -0.975000000    -4.848000000
H     0.171000000    -0.993000000    -5.415000000
O     1.376000000     2.517000000    -3.739000000
H     0.174000000     1.048000000    -2.742000000
C    -2.073000000     2.802000000    -3.521000000
C    -1.167000000     4.048000000    -3.638000000
H    -1.825000000     4.911000000    -3.759000000
H    -0.757000000     3.980000000    -4.648000000
C    -0.066000000     4.051000000    -2.564000000
C    -0.224000000     4.826000000    -1.420000000
H    -1.208000000     5.259000000    -1.262000000
C     1.140000000     3.400000000    -2.758000000
C     2.173000000     3.515000000    -1.830000000
H     3.134000000     3.026000000    -1.974000000
C     2.001000000     4.364000000    -0.694000000
O     2.919000000     4.248000000     0.300000000
C     2.722000000     3.328000000     1.464000000
C     4.106000000     2.791000000     1.893000000
C     5.132000000     2.586000000     0.976000000
H     4.994000000     3.059000000     0.007000000
C     4.281000000     2.468000000     3.281000000
H     3.528000000     2.602000000     4.053000000
O     2.116000000     4.004000000     2.546000000
H     2.194000000     2.422000000     1.131000000
C     0.733000000     4.942000000    -0.421000000
C     0.347000000     5.616000000     0.857000000
H    -0.465000000     6.337000000     0.740000000
H     1.235000000     6.193000000     1.120000000
C    -0.118000000     4.523000000     1.839000000
C     0.755000000     3.854000000     2.699000000
C     0.227000000     2.923000000     3.598000000
H     0.853000000     2.379000000     4.300000000
C    -1.141000000     2.610000000     3.570000000
O    -1.570000000     1.593000000     4.329000000
C    -1.949000000     0.432000000     3.509000000
H    -1.507000000     0.452000000     2.502000000
C    -1.396000000    -0.785000000     4.156000000
C    -2.131000000    -2.006000000     4.391000000
H    -3.190000000    -2.093000000     4.164000000
C    -0.004000000    -0.869000000     4.338000000
H     0.554000000     0.000000000     4.000000000
C     0.619000000    -1.973000000     4.885000000
O     1.985000000    -1.934000000     4.967000000
C    -0.105000000    -3.139000000     5.131000000
H     0.438000000    -3.994000000     5.524000000
C    -1.484000000    -3.199000000     4.743000000
O    -2.174000000    -4.338000000     4.978000000
C    -2.932000000    -4.783000000     3.940000000
C    -2.379000000    -4.824000000     2.666000000
H    -1.367000000    -4.488000000     2.455000000
C    -4.220000000    -5.277000000     4.160000000
H    -4.838000000    -5.085000000     5.034000000
C    -4.981000000    -5.800000000     3.062000000
H    -6.011000000    -6.144000000     3.106000000
C    -4.368000000    -5.938000000     1.813000000
H    -4.795000000    -6.345000000     0.900000000
C    -3.035000000    -5.484000000     1.608000000
O    -2.387000000    -5.593000000     0.387000000
C    -2.777000000    -4.896000000    -0.762000000
C    -2.577000000    -5.459000000    -2.056000000
H    -2.087000000    -6.429000000    -2.082000000
C    -2.742000000    -4.699000000    -3.219000000
O    -2.581000000    -5.285000000    -4.467000000
C    -1.641000000    -4.857000000    -5.419000000
C    -0.422000000    -4.364000000    -5.001000000
H    -0.043000000    -4.309000000    -3.983000000
C    -2.029000000    -4.633000000    -6.766000000
H    -2.960000000    -5.013000000    -7.177000000
C    -1.175000000    -3.949000000    -7.610000000
H    -1.488000000    -3.762000000    -8.634000000
C     0.028000000    -3.466000000    -7.183000000
H     0.675000000    -2.890000000    -7.839000000
C     0.454000000    -3.745000000    -5.905000000
O     1.728000000    -3.319000000    -5.528000000
C     1.883000000    -2.146000000    -4.836000000
C     3.016000000    -2.191000000    -3.996000000
H     3.546000000    -3.135000000    -3.890000000
C     3.460000000    -1.105000000    -3.253000000
O     4.568000000    -1.299000000    -2.479000000
C     5.469000000    -0.229000000    -2.249000000
C     5.763000000     0.194000000    -0.919000000
H     5.359000000    -0.237000000    -0.006000000
C     5.929000000     0.504000000    -3.324000000
H     5.521000000     0.274000000    -4.305000000
C     6.711000000     1.624000000    -3.196000000
H     6.921000000     2.244000000    -4.063000000
C     7.128000000     1.936000000    -1.902000000
H     7.906000000     2.695000000    -1.881000000
C     6.750000000     1.198000000    -0.778000000
O     7.169000000     1.646000000     0.451000000
C     6.233000000     1.933000000     1.348000000
C     6.502000000     1.648000000     2.690000000
H     7.461000000     1.170000000     2.874000000
C     5.509000000     1.935000000     3.677000000
O     5.552000000     1.311000000     4.910000000
C     4.530000000     0.656000000     5.572000000
C     4.352000000     0.828000000     6.927000000
H     4.930000000     1.629000000     7.382000000
C     3.256000000     0.245000000     7.567000000
H     3.015000000     0.545000000     8.583000000
C     2.515000000    -0.660000000     6.814000000
H     1.674000000    -1.168000000     7.279000000
C     2.769000000    -0.929000000     5.509000000
C     3.716000000    -0.197000000     4.838000000
H     3.785000000    -0.339000000     3.763000000
C     1.156000000    -1.797000000     1.081000000
H     1.551000000    -2.130000000     2.038000000
C     0.598000000    -0.501000000     1.020000000
H     0.841000000     0.173000000     1.836000000
C    -0.144000000    -0.116000000    -0.090000000
H    -0.576000000     0.928000000    -0.090000000
C    -0.219000000    -0.973000000    -1.201000000
H    -0.731000000    -0.709000000    -2.123000000
C     0.390000000    -2.229000000    -1.103000000
H     0.485000000    -2.811000000    -2.016000000
C     1.130000000    -2.652000000    -0.003000000
C     1.881000000    -3.981000000     0.109000000
O     1.839000000    -4.822000000    -0.721000000
O     2.490000000    -4.217000000     1.161000000
O     4.377000000    -6.382000000     4.560000000
H     4.040000000    -5.646000000     4.048000000
H     4.731000000    -6.986000000     3.907000000
O     5.649000000    -9.837000000    -0.273000000
H     6.315000000    -9.421000000     0.275000000
H     4.819000000    -9.607000000     0.143000000
O     2.054000000    -6.805000000     5.935000000
H     2.103000000    -7.705000000     6.258000000
H     2.856000000    -6.689000000     5.427000000
O     7.023000000    -6.506000000     0.867000000
H     7.716000000    -7.108000000     0.596000000
H     7.433000000    -5.948000000     1.527000000
O     7.650000000    -2.758000000    -1.342000000
H     6.937000000    -3.179000000    -0.861000000
H     7.280000000    -2.574000000    -2.206000000
O     0.864000000    -6.649000000     1.435000000
H     1.285000000    -5.790000000     1.407000000
H     0.635000000    -6.833000000     0.524000000
O    -0.409000000    -8.647000000    -0.307000000
H    -1.256000000    -8.890000000    -0.681000000
H    -0.009000000    -8.082000000    -0.968000000
O    -1.897000000    -9.116000000     2.097000000
H    -1.096000000    -8.958000000     2.597000000
H    -1.758000000    -8.653000000     1.270000000
O     5.205000000    -3.394000000    -0.388000000
H     4.861000000    -2.588000000    -0.772000000
H     4.484000000    -4.020000000    -0.459000000
O     4.840000000    -7.752000000     1.767000000
H     4.001000000    -7.488000000     1.390000000
H     5.487000000    -7.209000000     1.317000000
O     0.979000000    -8.442000000     3.250000000
H     1.731000000    -8.151000000     3.767000000
H     0.986000000    -7.875000000     2.478000000
O     6.369000000    -3.115000000     2.577000000
H     6.151000000    -3.300000000     1.664000000
H     5.672000000    -3.537000000     3.080000000
O     3.305000000    -7.181000000    -0.392000000
H     2.981000000    -7.626000000    -1.175000000
H     2.976000000    -6.286000000    -0.471000000
O     1.210000000    -6.759000000    -4.730000000
H     2.050000000    -7.196000000    -4.586000000
H     0.968000000    -6.995000000    -5.626000000
O     3.547000000    -3.572000000     3.413000000
H     3.040000000    -3.937000000     2.688000000
H     2.977000000    -2.902000000     3.791000000
O     6.638000000    -6.120000000    -2.058000000
H     6.681000000    -6.002000000    -1.109000000
H     6.738000000    -7.063000000    -2.188000000
O     0.935000000    -7.019000000    -1.847000000
H     0.883000000    -6.857000000    -2.789000000
H     1.137000000    -6.164000000    -1.468000000
O     2.579000000   -10.205000000     0.131000000
H     2.659000000   -10.631000000    -0.723000000
H     2.315000000    -9.308000000    -0.073000000
O     4.174000000    -3.681000000     6.339000000
H     3.524000000    -4.073000000     6.922000000
H     3.735000000    -3.630000000     5.490000000
