215
-1455.06451
C    -1.384000000     2.371000000     3.918000000
H    -1.583000000     3.124000000     3.160000000
C    -0.039000000     1.965000000     4.033000000
C     0.354000000     1.071000000     5.055000000
H     1.387000000     0.795000000     5.255000000
C     1.027000000     2.528000000     3.202000000
O     0.764000000     3.885000000     2.778000000
H     1.062000000     2.063000000     2.206000000
O     2.322000000     2.379000000     3.727000000
C     3.187000000     1.754000000     2.857000000
C     3.491000000     0.412000000     3.031000000
H     3.137000000    -0.149000000     3.892000000
C     4.289000000    -0.267000000     2.177000000
O     4.204000000    -1.626000000     2.274000000
C     4.893000000     0.379000000     1.093000000
C     5.625000000    -0.483000000     0.034000000
H     6.390000000     0.191000000    -0.356000000
C     4.689000000    -0.887000000    -1.040000000
C     4.430000000    -0.109000000    -2.134000000
H     4.925000000     0.852000000    -2.252000000
H     6.133000000    -1.357000000     0.447000000
C     4.588000000     1.743000000     0.865000000
H     4.998000000     2.203000000    -0.030000000
C     3.748000000     2.440000000     1.754000000
C     3.490000000     3.919000000     1.614000000
H     4.390000000     4.369000000     1.190000000
H     3.375000000     4.405000000     2.585000000
C     2.238000000     4.272000000     0.894000000
C     2.391000000     4.546000000    -0.506000000
H     3.339000000     4.469000000    -1.032000000
C     0.981000000     4.322000000     1.525000000
C    -0.122000000     4.759000000     0.778000000
H    -1.076000000     4.838000000     1.293000000
C    -0.005000000     4.851000000    -0.620000000
O    -1.204000000     4.759000000    -1.281000000
C    -1.580000000     3.527000000    -1.872000000
C    -3.033000000     3.258000000    -1.582000000
C    -3.653000000     2.243000000    -2.352000000
H    -3.140000000     1.726000000    -3.159000000
C    -3.762000000     3.878000000    -0.598000000
H    -3.328000000     4.593000000     0.096000000
O    -1.305000000     3.599000000    -3.218000000
H    -1.081000000     2.672000000    -1.392000000
C     1.255000000     4.840000000    -1.281000000
C     1.293000000     4.786000000    -2.791000000
H     2.204000000     5.286000000    -3.126000000
H     0.570000000     5.491000000    -3.206000000
C     1.069000000     3.420000000    -3.365000000
C     2.160000000     2.594000000    -3.549000000
H     3.119000000     3.032000000    -3.283000000
C    -0.185000000     2.987000000    -3.673000000
C    -0.333000000     1.729000000    -4.211000000
H    -1.309000000     1.417000000    -4.576000000
C     0.792000000     0.874000000    -4.399000000
O     0.470000000    -0.440000000    -4.769000000
C     0.594000000    -1.562000000    -3.874000000
C    -0.420000000    -2.639000000    -4.197000000
C    -1.678000000    -2.242000000    -4.505000000
H    -1.898000000    -1.177000000    -4.480000000
C    -0.158000000    -3.979000000    -3.955000000
H     0.828000000    -4.304000000    -3.632000000
O     1.872000000    -2.155000000    -3.942000000
H     0.305000000    -1.234000000    -2.864000000
C     2.063000000     1.344000000    -4.085000000
C     3.290000000     0.504000000    -4.234000000
H     4.161000000     1.146000000    -4.385000000
H     3.239000000    -0.034000000    -5.183000000
C     3.537000000    -0.488000000    -3.164000000
C     2.828000000    -1.718000000    -2.997000000
C     3.201000000    -2.540000000    -1.956000000
H     2.760000000    -3.533000000    -1.914000000
C     4.035000000    -2.085000000    -0.910000000
O     4.078000000    -2.821000000     0.229000000
C     3.297000000    -2.253000000     1.267000000
H     2.439000000    -1.660000000     0.916000000
C     2.450000000    -3.337000000     1.913000000
C     2.300000000    -3.486000000     3.316000000
H     3.014000000    -3.133000000     4.055000000
C     1.505000000    -3.985000000     1.096000000
H     1.540000000    -3.929000000     0.012000000
C     0.465000000    -4.723000000     1.638000000
O    -0.427000000    -5.377000000     0.783000000
C     0.316000000    -4.817000000     2.984000000
H    -0.525000000    -5.393000000     3.363000000
C     1.267000000    -4.236000000     3.812000000
O     1.070000000    -4.544000000     5.128000000
C     1.328000000    -3.519000000     5.983000000
C     0.379000000    -2.486000000     6.002000000
H    -0.494000000    -2.609000000     5.366000000
C     2.497000000    -3.409000000     6.700000000
H     3.246000000    -4.194000000     6.641000000
C     2.686000000    -2.349000000     7.584000000
H     3.509000000    -2.252000000     8.287000000
C     1.757000000    -1.318000000     7.651000000
H     1.879000000    -0.411000000     8.238000000
C     0.640000000    -1.346000000     6.836000000
O    -0.363000000    -0.357000000     6.914000000
C    -0.655000000     0.545000000     5.883000000
C    -1.959000000     0.868000000     5.665000000
H    -2.754000000     0.360000000     6.205000000
C    -2.368000000     1.839000000     4.755000000
O    -3.678000000     2.037000000     4.611000000
C    -4.122000000     3.206000000     3.954000000
C    -4.751000000     3.088000000     2.679000000
H    -4.862000000     2.124000000     2.187000000
C    -4.147000000     4.469000000     4.616000000
H    -3.896000000     4.371000000     5.669000000
C    -4.689000000     5.555000000     3.883000000
H    -4.802000000     6.515000000     4.380000000
C    -5.220000000     5.442000000     2.589000000
H    -5.582000000     6.292000000     2.016000000
C    -5.220000000     4.187000000     2.010000000
O    -5.793000000     3.927000000     0.787000000
C    -5.092000000     3.459000000    -0.314000000
C    -5.687000000     2.547000000    -1.147000000
H    -6.677000000     2.158000000    -0.919000000
C    -4.999000000     1.945000000    -2.213000000
O    -5.655000000     0.900000000    -2.949000000
C    -5.188000000     0.340000000    -4.159000000
C    -4.852000000    -0.994000000    -4.140000000
H    -4.925000000    -1.569000000    -3.220000000
C    -5.172000000     1.088000000    -5.364000000
H    -5.442000000     2.136000000    -5.469000000
C    -4.710000000     0.575000000    -6.518000000
H    -4.583000000     1.190000000    -7.405000000
C    -4.222000000    -0.782000000    -6.482000000
H    -3.732000000    -1.273000000    -7.319000000
C    -4.301000000    -1.536000000    -5.282000000
O    -3.945000000    -2.875000000    -5.289000000
C    -2.696000000    -3.214000000    -4.797000000
C    -2.393000000    -4.545000000    -4.616000000
H    -3.199000000    -5.250000000    -4.801000000
C    -1.169000000    -4.874000000    -4.085000000
O    -0.916000000    -6.201000000    -3.840000000
C    -0.354000000    -6.556000000    -2.597000000
C     0.686000000    -7.529000000    -2.588000000
H     1.095000000    -7.971000000    -3.494000000
C     1.306000000    -7.780000000    -1.339000000
H     2.167000000    -8.442000000    -1.388000000
C     0.910000000    -7.139000000    -0.152000000
H     1.343000000    -7.402000000     0.810000000
C    -0.086000000    -6.117000000    -0.282000000
C    -0.673000000    -5.787000000    -1.480000000
H    -1.446000000    -5.023000000    -1.505000000
C    -1.778000000    -1.383000000    -0.361000000
H    -2.162000000    -2.368000000    -0.617000000
C    -0.477000000    -0.978000000    -0.614000000
H     0.165000000    -1.713000000    -1.092000000
C    -0.065000000     0.213000000    -0.189000000
H     1.014000000     0.410000000    -0.213000000
C    -0.989000000     1.058000000     0.536000000
H    -0.663000000     2.003000000     0.962000000
C    -2.335000000     0.739000000     0.598000000
H    -2.991000000     1.417000000     1.138000000
C    -2.760000000    -0.490000000     0.157000000
C    -4.192000000    -0.995000000     0.306000000
O    -5.048000000    -0.197000000     0.631000000
O    -4.404000000    -2.189000000     0.259000000
O    -9.068000000    -1.265000000     2.187000000
H    -8.587000000    -1.238000000     1.360000000
H    -9.465000000    -2.136000000     2.205000000
O    -9.695000000    -2.384000000    -0.966000000
H    -9.908000000    -1.684000000    -1.583000000
H    -9.830000000    -3.191000000    -1.464000000
O    -5.683000000     0.203000000     6.371000000
H    -5.276000000     0.703000000     5.663000000
H    -6.453000000     0.716000000     6.615000000
O    -2.815000000    -1.906000000     4.176000000
H    -2.802000000    -2.796000000     4.529000000
H    -1.906000000    -1.733000000     3.931000000
O    -8.045000000    -0.403000000     4.840000000
H    -8.525000000    -0.521000000     4.021000000
H    -7.130000000    -0.317000000     4.572000000
O    -6.158000000    -2.746000000     1.993000000
H    -5.467000000    -2.606000000     1.346000000
H    -6.155000000    -1.949000000     2.523000000
O    -3.241000000    -5.500000000     1.668000000
H    -3.503000000    -5.643000000     0.759000000
H    -2.407000000    -5.035000000     1.608000000
O    -5.387000000    -0.258000000     3.342000000
H    -4.529000000    -0.317000000     3.761000000
H    -5.193000000    -0.096000000     2.419000000
O    -6.438000000    -5.611000000    -2.615000000
H    -5.964000000    -5.091000000    -1.966000000
H    -5.826000000    -6.306000000    -2.858000000
O    -9.187000000     0.991000000    -1.154000000
H    -8.507000000     0.407000000    -0.817000000
H    -9.376000000     0.657000000    -2.032000000
O    -7.484000000    -0.795000000    -0.199000000
H    -6.604000000    -0.444000000    -0.062000000
H    -7.348000000    -1.583000000    -0.725000000
O    -5.311000000    -5.492000000     3.786000000
H    -5.817000000    -6.225000000     3.436000000
H    -4.901000000    -5.096000000     3.017000000
O    -6.214000000    -3.205000000    -1.297000000
H    -6.436000000    -3.705000000    -0.512000000
H    -5.367000000    -2.807000000    -1.097000000
O    -4.920000000    -2.434000000     6.167000000
H    -5.020000000    -1.486000000     6.255000000
H    -4.138000000    -2.544000000     5.627000000
O    -4.194000000    -6.534000000    -1.370000000
H    -3.628000000    -7.147000000    -1.839000000
H    -4.721000000    -7.087000000    -0.793000000
O    -7.495000000     2.944000000    -4.191000000
H    -8.091000000     2.394000000    -4.699000000
H    -7.197000000     2.380000000    -3.478000000
O    -0.663000000    -1.362000000     2.622000000
H    -0.849000000    -0.593000000     2.084000000
H    -0.627000000    -2.087000000     1.998000000
O    -8.697000000    -3.900000000     1.028000000
H    -8.008000000    -3.737000000     1.672000000
H    -8.604000000    -3.190000000     0.393000000
O    -2.802000000    -4.725000000     4.977000000
H    -3.551000000    -4.776000000     4.384000000
H    -2.472000000    -5.622000000     5.024000000
