215
-1455.85952
C    -1.051000000     2.522000000     3.987000000
H    -1.154000000     3.369000000     3.313000000
C     0.190000000     1.911000000     4.134000000
C     0.334000000     0.830000000     4.954000000
H     1.242000000     0.246000000     5.078000000
C     1.427000000     2.372000000     3.293000000
O     1.373000000     3.758000000     3.158000000
H     1.359000000     1.909000000     2.298000000
O     2.612000000     1.875000000     3.866000000
C     3.523000000     1.317000000     2.995000000
C     3.589000000    -0.097000000     2.953000000
H     3.086000000    -0.732000000     3.678000000
C     4.282000000    -0.735000000     1.915000000
O     4.224000000    -2.107000000     1.776000000
C     4.822000000     0.040000000     0.916000000
C     5.593000000    -0.591000000    -0.337000000
H     6.380000000     0.070000000    -0.704000000
C     4.626000000    -0.999000000    -1.393000000
C     4.332000000    -0.082000000    -2.396000000
H     4.794000000     0.901000000    -2.440000000
H     6.130000000    -1.488000000    -0.021000000
C     4.857000000     1.456000000     0.984000000
H     5.448000000     2.011000000     0.260000000
C     4.220000000     2.111000000     2.024000000
C     4.027000000     3.616000000     1.927000000
H     4.910000000     4.070000000     1.471000000
H     4.036000000     4.013000000     2.944000000
C     2.716000000     3.958000000     1.136000000
C     2.732000000     4.205000000    -0.238000000
H     3.661000000     4.048000000    -0.781000000
C     1.517000000     4.153000000     1.886000000
C     0.339000000     4.544000000     1.215000000
H    -0.585000000     4.623000000     1.782000000
C     0.328000000     4.733000000    -0.170000000
O    -0.836000000     4.919000000    -0.744000000
C    -1.460000000     3.783000000    -1.521000000
C    -2.921000000     3.620000000    -1.305000000
C    -3.574000000     2.563000000    -1.919000000
H    -3.112000000     1.891000000    -2.638000000
C    -3.595000000     4.351000000    -0.348000000
H    -3.152000000     5.213000000     0.144000000
O    -1.126000000     4.004000000    -2.962000000
H    -0.976000000     2.822000000    -1.294000000
C     1.535000000     4.576000000    -0.838000000
C     1.483000000     4.823000000    -2.383000000
H     2.383000000     5.301000000    -2.777000000
H     0.698000000     5.537000000    -2.640000000
C     1.193000000     3.522000000    -3.198000000
C     2.222000000     2.646000000    -3.494000000
H     3.246000000     2.962000000    -3.317000000
C    -0.141000000     3.193000000    -3.407000000
C    -0.426000000     1.912000000    -3.921000000
H    -1.447000000     1.553000000    -4.026000000
C     0.595000000     1.091000000    -4.304000000
O     0.256000000    -0.199000000    -4.759000000
C     0.444000000    -1.396000000    -3.950000000
C    -0.682000000    -2.392000000    -4.048000000
C    -1.855000000    -1.854000000    -4.613000000
H    -1.944000000    -0.809000000    -4.901000000
C    -0.617000000    -3.659000000    -3.662000000
H     0.308000000    -4.098000000    -3.296000000
O     1.759000000    -1.878000000    -4.282000000
H     0.482000000    -1.041000000    -2.909000000
C     1.968000000     1.432000000    -4.116000000
C     3.091000000     0.489000000    -4.514000000
H     3.960000000     1.150000000    -4.549000000
H     2.749000000    -0.052000000    -5.398000000
C     3.401000000    -0.447000000    -3.403000000
C     2.700000000    -1.626000000    -3.312000000
C     3.095000000    -2.564000000    -2.327000000
H     2.574000000    -3.517000000    -2.286000000
C     3.997000000    -2.216000000    -1.382000000
O     4.041000000    -3.048000000    -0.289000000
C     3.342000000    -2.664000000     0.831000000
H     2.698000000    -1.849000000     0.469000000
C     2.430000000    -3.742000000     1.440000000
C     2.169000000    -3.774000000     2.858000000
H     2.727000000    -3.095000000     3.498000000
C     1.812000000    -4.773000000     0.688000000
H     1.924000000    -4.819000000    -0.392000000
C     0.926000000    -5.700000000     1.276000000
O     0.222000000    -6.685000000     0.626000000
C     0.668000000    -5.693000000     2.601000000
H    -0.034000000    -6.426000000     2.991000000
C     1.286000000    -4.730000000     3.405000000
O     1.159000000    -4.816000000     4.760000000
C     1.073000000    -3.771000000     5.664000000
C     0.323000000    -2.626000000     5.479000000
H    -0.291000000    -2.558000000     4.584000000
C     1.709000000    -4.039000000     6.865000000
H     2.241000000    -4.986000000     6.916000000
C     1.578000000    -3.141000000     7.905000000
H     2.077000000    -3.313000000     8.856000000
C     0.799000000    -1.958000000     7.733000000
H     0.620000000    -1.262000000     8.548000000
C     0.164000000    -1.717000000     6.533000000
O    -0.771000000    -0.708000000     6.539000000
C    -0.800000000     0.343000000     5.578000000
C    -2.089000000     0.920000000     5.453000000
H    -2.931000000     0.482000000     5.983000000
C    -2.190000000     2.052000000     4.621000000
O    -3.399000000     2.557000000     4.489000000
C    -3.773000000     3.679000000     3.878000000
C    -4.424000000     3.622000000     2.636000000
H    -4.500000000     2.685000000     2.090000000
C    -3.691000000     4.830000000     4.706000000
H    -3.123000000     4.786000000     5.631000000
C    -4.401000000     5.948000000     4.253000000
H    -4.255000000     6.886000000     4.783000000
C    -4.894000000     5.936000000     2.975000000
H    -5.309000000     6.826000000     2.510000000
C    -4.953000000     4.784000000     2.157000000
O    -5.563000000     4.789000000     0.951000000
C    -4.950000000     4.081000000    -0.042000000
C    -5.623000000     3.109000000    -0.707000000
H    -6.638000000     2.862000000    -0.406000000
C    -4.968000000     2.312000000    -1.596000000
O    -5.629000000     1.291000000    -2.234000000
C    -5.369000000     0.925000000    -3.557000000
C    -4.953000000    -0.387000000    -3.779000000
H    -4.913000000    -1.053000000    -2.920000000
C    -5.338000000     1.889000000    -4.568000000
H    -5.861000000     2.819000000    -4.356000000
C    -5.079000000     1.441000000    -5.862000000
H    -5.287000000     2.059000000    -6.731000000
C    -4.540000000     0.179000000    -6.009000000
H    -4.241000000    -0.201000000    -6.982000000
C    -4.588000000    -0.820000000    -4.988000000
O    -4.171000000    -2.072000000    -5.260000000
C    -3.004000000    -2.610000000    -4.736000000
C    -2.756000000    -4.025000000    -4.609000000
H    -3.525000000    -4.739000000    -4.892000000
C    -1.685000000    -4.500000000    -3.928000000
O    -1.622000000    -5.826000000    -3.700000000
C    -0.703000000    -6.566000000    -2.928000000
C     0.176000000    -7.470000000    -3.482000000
H     0.156000000    -7.771000000    -4.526000000
C     1.150000000    -8.026000000    -2.660000000
H     1.935000000    -8.619000000    -3.124000000
C     1.188000000    -7.737000000    -1.284000000
H     1.949000000    -8.263000000    -0.713000000
C     0.260000000    -6.871000000    -0.706000000
C    -0.689000000    -6.324000000    -1.550000000
H    -1.480000000    -5.708000000    -1.128000000
C    -0.896000000    -2.607000000    -0.520000000
H    -0.623000000    -3.659000000    -0.553000000
C     0.112000000    -1.664000000    -0.378000000
H     1.149000000    -1.987000000    -0.352000000
C    -0.146000000    -0.299000000    -0.282000000
H     0.597000000     0.427000000    -0.058000000
C    -1.392000000     0.054000000    -0.500000000
H    -1.682000000     1.101000000    -0.476000000
C    -2.467000000    -0.837000000    -0.606000000
H    -3.508000000    -0.563000000    -0.759000000
C    -2.237000000    -2.183000000    -0.543000000
C    -3.460000000    -3.038000000    -0.501000000
O    -4.573000000    -2.596000000    -0.491000000
O    -3.302000000    -4.270000000    -0.281000000
O    -7.920000000    -0.108000000    -1.756000000
H    -8.091000000     0.566000000    -2.415000000
H    -7.929000000    -0.930000000    -2.246000000
O    -4.756000000    -1.042000000     2.992000000
H    -5.040000000    -0.648000000     2.167000000
H    -5.299000000    -0.622000000     3.658000000
O    -2.014000000    -6.629000000     4.743000000
H    -2.178000000    -5.847000000     4.215000000
H    -2.076000000    -7.354000000     4.122000000
O    -8.026000000    -3.261000000    -0.536000000
H    -7.351000000    -3.423000000    -1.195000000
H    -7.595000000    -2.713000000     0.120000000
O    -3.848000000    -7.142000000    -0.207000000
H    -4.224000000    -7.057000000    -1.084000000
H    -3.673000000    -6.242000000     0.067000000
O    -5.546000000    -4.415000000     1.292000000
H    -4.745000000    -4.497000000     1.809000000
H    -5.289000000    -3.886000000     0.536000000
O    -5.386000000    -6.452000000    -2.277000000
H    -5.004000000    -6.916000000    -3.022000000
H    -6.330000000    -6.574000000    -2.377000000
O    -7.704000000    -4.181000000     3.039000000
H    -6.979000000    -4.044000000     2.429000000
H    -8.240000000    -3.393000000     2.955000000
O    -8.198000000    -6.637000000    -1.501000000
H    -7.775000000    -6.345000000    -0.693000000
H    -9.110000000    -6.363000000    -1.407000000
O    -3.453000000    -3.276000000     5.435000000
H    -2.686000000    -2.757000000     5.190000000
H    -3.911000000    -3.431000000     4.609000000
O    -6.091000000    -0.420000000     0.742000000
H    -5.622000000    -1.033000000     0.176000000
H    -6.644000000     0.083000000     0.144000000
O    -6.342000000    -7.169000000     1.431000000
H    -5.455000000    -7.283000000     1.089000000
H    -6.398000000    -6.238000000     1.644000000
O    -6.039000000    -3.831000000    -2.585000000
H    -5.666000000    -4.712000000    -2.614000000
H    -5.344000000    -3.288000000    -2.212000000
O    -8.502000000    -4.974000000    -4.494000000
H    -7.752000000    -4.994000000    -3.900000000
H    -8.140000000    -4.668000000    -5.326000000
O    -3.906000000    -7.512000000    -4.443000000
H    -3.102000000    -7.118000000    -4.106000000
H    -3.683000000    -7.792000000    -5.331000000
O    -8.340000000    -1.294000000     2.287000000
H    -7.548000000    -0.970000000     1.858000000
H    -9.058000000    -0.947000000     1.759000000
O    -2.202000000    -1.646000000     3.203000000
H    -1.624000000    -0.890000000     3.104000000
H    -3.084000000    -1.290000000     3.092000000
O    -4.054000000    -9.553000000     1.428000000
H    -4.675000000    -9.897000000     0.786000000
H    -3.919000000    -8.642000000     1.166000000
O    -3.001000000    -4.368000000     2.376000000
H    -2.914000000    -4.464000000     1.427000000
H    -2.781000000    -3.451000000     2.544000000
