215
-1474.39361
C    -1.196000000     3.398000000     4.213000000
H    -1.241000000     4.345000000     3.681000000
C     0.009000000     2.667000000     4.103000000
C     0.149000000     1.501000000     4.845000000
H     0.974000000     0.822000000     4.649000000
C     1.062000000     2.947000000     2.996000000
O     0.992000000     4.305000000     2.477000000
H     0.812000000     2.319000000     2.128000000
O     2.405000000     2.559000000     3.551000000
C     3.363000000     1.985000000     2.682000000
C     3.572000000     0.600000000     2.866000000
H     3.086000000     0.155000000     3.730000000
C     4.303000000    -0.127000000     1.968000000
O     4.282000000    -1.461000000     2.138000000
C     4.837000000     0.453000000     0.802000000
C     5.589000000    -0.316000000    -0.300000000
H     6.333000000     0.358000000    -0.731000000
C     4.695000000    -0.993000000    -1.292000000
C     4.318000000    -0.317000000    -2.461000000
H     4.574000000     0.739000000    -2.483000000
H     6.191000000    -1.107000000     0.153000000
C     4.654000000     1.833000000     0.589000000
H     4.928000000     2.325000000    -0.341000000
C     3.923000000     2.629000000     1.534000000
C     3.702000000     4.111000000     1.313000000
H     4.539000000     4.593000000     0.804000000
H     3.637000000     4.559000000     2.306000000
C     2.401000000     4.265000000     0.543000000
C     2.423000000     4.259000000    -0.852000000
H     3.330000000     4.133000000    -1.438000000
C     1.156000000     4.385000000     1.134000000
C    -0.021000000     4.498000000     0.394000000
H    -0.994000000     4.502000000     0.879000000
C     0.050000000     4.519000000    -1.016000000
O    -1.278000000     4.457000000    -1.554000000
C    -1.749000000     3.179000000    -2.062000000
C    -3.227000000     2.972000000    -1.693000000
C    -3.929000000     2.094000000    -2.469000000
H    -3.497000000     1.778000000    -3.416000000
C    -3.899000000     3.504000000    -0.579000000
H    -3.281000000     4.178000000     0.008000000
O    -1.455000000     3.069000000    -3.478000000
H    -1.184000000     2.412000000    -1.512000000
C     1.311000000     4.373000000    -1.646000000
C     1.271000000     4.413000000    -3.173000000
H     2.149000000     4.911000000    -3.589000000
H     0.352000000     4.895000000    -3.514000000
C     1.039000000     2.962000000    -3.720000000
C     2.078000000     2.084000000    -3.997000000
H     3.082000000     2.496000000    -3.947000000
C    -0.299000000     2.427000000    -3.929000000
C    -0.506000000     1.097000000    -4.185000000
H    -1.506000000     0.707000000    -4.354000000
C     0.612000000     0.324000000    -4.509000000
O     0.424000000    -0.982000000    -4.974000000
C     0.514000000    -1.974000000    -3.969000000
C    -0.616000000    -3.018000000    -4.030000000
C    -1.872000000    -2.711000000    -4.587000000
H    -2.044000000    -1.757000000    -5.078000000
C    -0.427000000    -4.282000000    -3.527000000
H     0.558000000    -4.562000000    -3.162000000
O     1.868000000    -2.590000000    -3.908000000
H     0.339000000    -1.363000000    -3.071000000
C     1.913000000     0.851000000    -4.465000000
C     3.140000000    -0.059000000    -4.680000000
H     4.002000000     0.506000000    -5.040000000
H     2.862000000    -0.754000000    -5.475000000
C     3.481000000    -0.938000000    -3.426000000
C     2.823000000    -2.082000000    -3.088000000
C     3.102000000    -2.718000000    -1.858000000
H     2.481000000    -3.547000000    -1.530000000
C     4.068000000    -2.176000000    -1.004000000
O     4.166000000    -2.782000000     0.234000000
C     3.364000000    -2.245000000     1.328000000
H     2.647000000    -1.545000000     0.874000000
C     2.632000000    -3.298000000     2.092000000
C     2.579000000    -3.186000000     3.483000000
H     3.069000000    -2.367000000     4.004000000
C     1.910000000    -4.363000000     1.449000000
H     1.889000000    -4.502000000     0.371000000
C     1.140000000    -5.211000000     2.201000000
O     0.514000000    -6.258000000     1.651000000
C     1.194000000    -5.181000000     3.581000000
H     0.729000000    -5.981000000     4.152000000
C     1.811000000    -4.126000000     4.202000000
O     1.685000000    -4.129000000     5.595000000
C     1.479000000    -2.931000000     6.317000000
C     0.495000000    -1.983000000     5.877000000
H    -0.079000000    -2.118000000     4.964000000
C     2.143000000    -2.675000000     7.543000000
H     2.870000000    -3.385000000     7.928000000
C     1.864000000    -1.548000000     8.293000000
H     2.181000000    -1.370000000     9.317000000
C     0.991000000    -0.618000000     7.777000000
H     0.695000000     0.274000000     8.323000000
C     0.300000000    -0.834000000     6.599000000
O    -0.860000000    -0.129000000     6.409000000
C    -0.861000000     1.119000000     5.734000000
C    -2.014000000     1.909000000     5.864000000
H    -2.798000000     1.622000000     6.560000000
C    -2.212000000     3.056000000     5.073000000
O    -3.473000000     3.612000000     5.037000000
C    -3.934000000     4.328000000     3.953000000
C    -4.507000000     3.671000000     2.887000000
H    -4.577000000     2.588000000     2.822000000
C    -3.808000000     5.726000000     3.964000000
H    -3.294000000     6.252000000     4.764000000
C    -4.323000000     6.431000000     2.837000000
H    -4.200000000     7.502000000     2.698000000
C    -5.064000000     5.772000000     1.862000000
H    -5.620000000     6.253000000     1.061000000
C    -5.135000000     4.365000000     1.901000000
O    -5.833000000     3.604000000     0.948000000
C    -5.188000000     3.123000000    -0.218000000
C    -5.809000000     2.176000000    -1.019000000
H    -6.795000000     1.796000000    -0.764000000
C    -5.174000000     1.653000000    -2.104000000
O    -5.897000000     0.715000000    -2.852000000
C    -5.434000000     0.106000000    -3.976000000
C    -4.863000000    -1.178000000    -3.878000000
H    -4.785000000    -1.732000000    -2.946000000
C    -5.457000000     0.764000000    -5.261000000
H    -5.854000000     1.771000000    -5.363000000
C    -5.013000000    -0.014000000    -6.346000000
H    -4.884000000     0.510000000    -7.290000000
C    -4.693000000    -1.341000000    -6.266000000
H    -4.395000000    -1.977000000    -7.096000000
C    -4.628000000    -1.925000000    -5.061000000
O    -4.260000000    -3.275000000    -4.909000000
C    -2.988000000    -3.676000000    -4.528000000
C    -2.787000000    -4.868000000    -3.798000000
H    -3.587000000    -5.573000000    -3.586000000
C    -1.497000000    -5.158000000    -3.349000000
O    -1.309000000    -6.410000000    -2.780000000
C    -0.278000000    -6.729000000    -1.926000000
C     0.996000000    -7.193000000    -2.362000000
H     1.161000000    -7.420000000    -3.412000000
C     1.964000000    -7.514000000    -1.381000000
H     2.884000000    -7.964000000    -1.747000000
C     1.824000000    -7.231000000    -0.015000000
H     2.584000000    -7.519000000     0.708000000
C     0.640000000    -6.619000000     0.353000000
C    -0.420000000    -6.395000000    -0.559000000
H    -1.280000000    -5.882000000    -0.139000000
C    -1.383000000    -2.680000000    -0.824000000
H    -1.162000000    -3.741000000    -0.916000000
C    -0.330000000    -1.777000000    -0.815000000
H     0.630000000    -2.128000000    -1.187000000
C    -0.492000000    -0.415000000    -0.429000000
H     0.393000000     0.240000000    -0.379000000
C    -1.801000000    -0.006000000    -0.047000000
H    -1.937000000     1.040000000     0.214000000
C    -2.887000000    -0.914000000    -0.151000000
H    -3.846000000    -0.525000000     0.180000000
C    -2.671000000    -2.270000000    -0.518000000
C    -3.818000000    -3.268000000    -0.451000000
O    -4.966000000    -2.881000000    -0.465000000
O    -3.614000000    -4.441000000    -0.078000000
O    -6.134000000     0.116000000     4.442000000
H    -6.377000000    -0.784000000     4.224000000
H    -5.342000000     0.281000000     3.929000000
O    -6.040000000    -0.688000000     1.275000000
H    -5.824000000    -1.338000000     0.606000000
H    -6.985000000    -0.564000000     1.192000000
O    -2.052000000    -6.015000000     5.359000000
H    -2.200000000    -5.649000000     4.487000000
H    -1.971000000    -6.957000000     5.213000000
O    -8.283000000    -0.753000000    -1.830000000
H    -8.142000000    -0.183000000    -2.586000000
H    -8.720000000    -0.195000000    -1.187000000
O    -5.634000000    -4.782000000     1.839000000
H    -4.967000000    -4.341000000     1.312000000
H    -6.420000000    -4.247000000     1.728000000
O    -5.446000000    -7.076000000     0.341000000
H    -4.988000000    -6.438000000    -0.206000000
H    -5.820000000    -6.557000000     1.052000000
O    -5.055000000    -6.112000000     4.636000000
H    -4.553000000    -6.926000000     4.679000000
H    -5.676000000    -6.251000000     3.921000000
O    -7.668000000    -7.606000000    -1.453000000
H    -7.067000000    -7.158000000    -2.048000000
H    -7.144000000    -7.781000000    -0.671000000
O    -3.723000000    -3.435000000     3.982000000
H    -4.104000000    -4.215000000     4.384000000
H    -3.204000000    -3.771000000     3.251000000
O    -0.339000000    -1.446000000     2.330000000
H     0.201000000    -0.660000000     2.238000000
H    -1.239000000    -1.122000000     2.306000000
O    -7.296000000    -3.247000000    -1.550000000
H    -6.463000000    -2.836000000    -1.321000000
H    -7.898000000    -2.513000000    -1.677000000
O    -8.697000000    -5.140000000    -0.183000000
H    -8.219000000    -4.586000000    -0.800000000
H    -8.324000000    -6.013000000    -0.305000000
O    -5.655000000    -5.173000000    -2.092000000
H    -6.223000000    -4.430000000    -1.887000000
H    -4.836000000    -4.981000000    -1.636000000
O    -3.438000000    -8.475000000     1.351000000
H    -2.966000000    -8.601000000     0.528000000
H    -4.292000000    -8.133000000     1.088000000
O    -7.798000000    -4.320000000    -4.856000000
H    -7.636000000    -5.160000000    -5.284000000
H    -6.961000000    -4.091000000    -4.452000000
O    -6.121000000    -2.550000000     4.363000000
H    -5.251000000    -2.765000000     4.026000000
H    -6.726000000    -2.927000000     3.724000000
O    -3.812000000    -0.621000000     2.993000000
H    -4.538000000    -0.712000000     2.376000000
H    -3.655000000    -1.510000000     3.311000000
O    -2.242000000    -5.053000000     2.156000000
H    -2.678000000    -4.885000000     1.320000000
H    -1.321000000    -4.850000000     1.991000000
O    -7.957000000    -3.598000000     2.114000000
H    -8.595000000    -2.901000000     2.267000000
H    -8.326000000    -4.105000000     1.390000000
