215
-1458.08708
C    -0.350000000     3.041000000     4.429000000
H    -0.498000000     3.891000000     3.768000000
C     0.797000000     2.279000000     4.310000000
C     0.785000000     1.025000000     4.947000000
H     1.555000000     0.312000000     4.665000000
C     1.682000000     2.500000000     3.060000000
O     1.633000000     3.824000000     2.661000000
H     1.457000000     1.926000000     2.149000000
O     3.085000000     2.186000000     3.418000000
C     3.799000000     1.419000000     2.556000000
C     3.901000000     0.053000000     2.621000000
H     3.544000000    -0.501000000     3.485000000
C     4.354000000    -0.745000000     1.599000000
O     4.212000000    -2.078000000     1.618000000
C     4.857000000    -0.174000000     0.444000000
C     5.401000000    -1.008000000    -0.723000000
H     6.258000000    -0.504000000    -1.176000000
C     4.408000000    -1.399000000    -1.739000000
C     4.074000000    -0.486000000    -2.722000000
H     4.484000000     0.520000000    -2.773000000
H     5.987000000    -1.860000000    -0.372000000
C     4.779000000     1.184000000     0.265000000
H     5.122000000     1.643000000    -0.658000000
C     4.256000000     1.973000000     1.343000000
C     4.076000000     3.490000000     1.072000000
H     4.879000000     3.889000000     0.448000000
H     4.113000000     4.040000000     2.014000000
C     2.722000000     3.826000000     0.482000000
C     2.671000000     3.983000000    -0.935000000
H     3.534000000     3.894000000    -1.591000000
C     1.615000000     4.140000000     1.327000000
C     0.497000000     4.544000000     0.727000000
H    -0.421000000     4.599000000     1.306000000
C     0.448000000     4.741000000    -0.640000000
O    -0.872000000     4.734000000    -1.100000000
C    -1.470000000     3.563000000    -1.621000000
C    -2.904000000     3.347000000    -1.113000000
C    -3.688000000     2.350000000    -1.714000000
H    -3.267000000     1.847000000    -2.582000000
C    -3.421000000     4.051000000    -0.044000000
H    -2.799000000     4.850000000     0.350000000
O    -1.414000000     3.582000000    -3.031000000
H    -0.842000000     2.707000000    -1.332000000
C     1.485000000     4.602000000    -1.508000000
C     1.276000000     4.618000000    -3.028000000
H     2.215000000     4.796000000    -3.555000000
H     0.510000000     5.355000000    -3.276000000
C     0.929000000     3.222000000    -3.531000000
C     1.901000000     2.317000000    -3.899000000
H     2.942000000     2.612000000    -4.001000000
C    -0.413000000     2.817000000    -3.574000000
C    -0.747000000     1.555000000    -4.049000000
H    -1.755000000     1.194000000    -4.240000000
C     0.230000000     0.698000000    -4.402000000
O    -0.173000000    -0.535000000    -4.793000000
C    -0.026000000    -1.640000000    -3.930000000
C    -1.246000000    -2.552000000    -4.130000000
C    -2.479000000    -2.092000000    -4.540000000
H    -2.528000000    -1.053000000    -4.858000000
C    -1.161000000    -3.889000000    -3.675000000
H    -0.205000000    -4.254000000    -3.309000000
O     1.197000000    -2.325000000    -4.222000000
H     0.114000000    -1.141000000    -2.959000000
C     1.584000000     1.007000000    -4.320000000
C     2.778000000     0.205000000    -4.732000000
H     3.677000000     0.801000000    -4.903000000
H     2.578000000    -0.377000000    -5.634000000
C     3.046000000    -0.766000000    -3.571000000
C     2.249000000    -1.931000000    -3.428000000
C     2.625000000    -2.817000000    -2.391000000
H     2.103000000    -3.755000000    -2.221000000
C     3.635000000    -2.550000000    -1.519000000
O     3.721000000    -3.348000000    -0.418000000
C     3.224000000    -2.756000000     0.791000000
H     2.440000000    -2.039000000     0.505000000
C     2.528000000    -3.821000000     1.572000000
C     2.487000000    -3.762000000     2.990000000
H     3.182000000    -3.066000000     3.453000000
C     1.765000000    -4.691000000     0.904000000
H     1.943000000    -4.721000000    -0.168000000
C     0.900000000    -5.601000000     1.550000000
O     0.140000000    -6.519000000     0.873000000
C     0.831000000    -5.464000000     2.900000000
H     0.193000000    -6.158000000     3.442000000
C     1.559000000    -4.521000000     3.675000000
O     1.423000000    -4.584000000     5.038000000
C     1.637000000    -3.459000000     5.800000000
C     0.582000000    -2.549000000     5.775000000
H    -0.276000000    -2.631000000     5.112000000
C     2.787000000    -3.343000000     6.596000000
H     3.488000000    -4.173000000     6.608000000
C     2.896000000    -2.192000000     7.371000000
H     3.742000000    -2.087000000     8.045000000
C     1.896000000    -1.204000000     7.331000000
H     1.862000000    -0.343000000     7.994000000
C     0.738000000    -1.407000000     6.529000000
O    -0.295000000    -0.490000000     6.490000000
C    -0.195000000     0.739000000     5.847000000
C    -1.326000000     1.529000000     5.995000000
H    -2.165000000     1.272000000     6.637000000
C    -1.379000000     2.714000000     5.335000000
O    -2.511000000     3.572000000     5.539000000
C    -3.139000000     4.371000000     4.578000000
C    -3.702000000     3.909000000     3.368000000
H    -3.658000000     2.869000000     3.053000000
C    -3.151000000     5.694000000     4.824000000
H    -2.646000000     6.099000000     5.696000000
C    -3.942000000     6.532000000     4.104000000
H    -3.941000000     7.605000000     4.281000000
C    -4.630000000     6.161000000     2.960000000
H    -5.267000000     6.883000000     2.456000000
C    -4.509000000     4.823000000     2.633000000
O    -5.244000000     4.425000000     1.527000000
C    -4.656000000     3.775000000     0.512000000
C    -5.525000000     2.837000000    -0.111000000
H    -6.522000000     2.686000000     0.295000000
C    -5.043000000     2.173000000    -1.228000000
O    -5.821000000     1.221000000    -1.827000000
C    -5.672000000     0.693000000    -3.041000000
C    -5.331000000    -0.619000000    -3.156000000
H    -5.144000000    -1.218000000    -2.268000000
C    -6.059000000     1.469000000    -4.161000000
H    -6.380000000     2.494000000    -3.998000000
C    -6.120000000     0.944000000    -5.421000000
H    -6.384000000     1.529000000    -6.298000000
C    -5.762000000    -0.388000000    -5.588000000
H    -5.691000000    -0.945000000    -6.519000000
C    -5.302000000    -1.141000000    -4.455000000
O    -4.890000000    -2.416000000    -4.647000000
C    -3.597000000    -2.888000000    -4.440000000
C    -3.465000000    -4.245000000    -4.093000000
H    -4.340000000    -4.889000000    -4.139000000
C    -2.263000000    -4.757000000    -3.715000000
O    -2.125000000    -6.077000000    -3.286000000
C    -1.060000000    -6.562000000    -2.535000000
C     0.050000000    -7.103000000    -3.188000000
H     0.006000000    -7.090000000    -4.274000000
C     1.142000000    -7.536000000    -2.400000000
H     1.981000000    -7.957000000    -2.948000000
C     1.216000000    -7.270000000    -1.038000000
H     2.144000000    -7.330000000    -0.476000000
C     0.084000000    -6.751000000    -0.433000000
C    -0.990000000    -6.349000000    -1.145000000
H    -1.806000000    -5.861000000    -0.617000000
C    -1.513000000    -2.427000000    -0.424000000
H    -1.418000000    -3.479000000    -0.678000000
C    -0.314000000    -1.704000000    -0.424000000
H     0.573000000    -2.184000000    -0.830000000
C    -0.265000000    -0.438000000     0.039000000
H     0.712000000     0.084000000     0.001000000
C    -1.464000000     0.117000000     0.461000000
H    -1.415000000     1.122000000     0.873000000
C    -2.710000000    -0.516000000     0.391000000
H    -3.707000000    -0.183000000     0.670000000
C    -2.695000000    -1.914000000     0.103000000
C    -4.000000000    -2.667000000     0.128000000
O    -4.992000000    -2.200000000     0.694000000
O    -4.013000000    -3.745000000    -0.431000000
O    -6.206000000     1.254000000     4.058000000
H    -6.673000000     0.915000000     3.295000000
H    -5.396000000     0.744000000     4.089000000
O    -6.631000000    -0.162000000     1.616000000
H    -6.097000000    -0.719000000     1.049000000
H    -7.277000000     0.228000000     1.028000000
O    -1.817000000    -5.286000000     4.993000000
H    -1.716000000    -4.693000000     4.248000000
H    -2.236000000    -6.064000000     4.625000000
O    -8.499000000    -0.222000000    -1.531000000
H    -8.243000000     0.605000000    -1.939000000
H    -9.082000000     0.034000000    -0.816000000
O    -5.870000000    -5.083000000     1.174000000
H    -5.343000000    -4.478000000     0.654000000
H    -6.741000000    -4.687000000     1.194000000
O    -4.059000000    -6.863000000    -0.846000000
H    -4.750000000    -6.460000000    -0.320000000
H    -3.904000000    -6.240000000    -1.555000000
O    -6.519000000    -5.208000000     4.671000000
H    -6.008000000    -4.416000000     4.838000000
H    -6.130000000    -5.581000000     3.880000000
O    -4.746000000    -2.586000000     3.182000000
H    -4.910000000    -2.410000000     2.255000000
H    -3.977000000    -3.155000000     3.184000000
O    -1.206000000    -1.059000000     3.149000000
H    -1.940000000    -0.768000000     3.690000000
H    -1.360000000    -0.650000000     2.297000000
O    -7.196000000    -2.344000000    -0.706000000
H    -6.421000000    -2.202000000    -0.163000000
H    -7.432000000    -1.472000000    -1.021000000
O    -8.001000000    -6.211000000    -1.249000000
H    -8.409000000    -5.763000000    -0.508000000
H    -7.235000000    -5.677000000    -1.459000000
O    -5.930000000    -4.466000000    -2.076000000
H    -6.443000000    -3.664000000    -1.973000000
H    -5.146000000    -4.318000000    -1.548000000
O    -9.739000000    -2.453000000    -2.742000000
H    -9.116000000    -1.916000000    -2.253000000
H    -9.321000000    -2.591000000    -3.592000000
O    -7.446000000    -5.556000000    -4.381000000
H    -6.970000000    -6.163000000    -4.948000000
H    -6.842000000    -5.378000000    -3.661000000
O    -7.107000000    -2.198000000     4.340000000
H    -6.263000000    -2.070000000     3.906000000
H    -7.745000000    -1.802000000     3.746000000
O    -3.633000000    -0.319000000     4.384000000
H    -3.520000000    -0.632000000     5.282000000
H    -3.946000000    -1.084000000     3.902000000
O    -2.251000000    -3.697000000     2.799000000
H    -2.093000000    -4.028000000     1.915000000
H    -1.660000000    -2.948000000     2.883000000
O    -2.495000000    -8.581000000     0.475000000
H    -2.958000000    -7.824000000     0.116000000
H    -3.187000000    -9.210000000     0.679000000
O    -8.520000000    -3.864000000     1.290000000
H    -8.983000000    -3.250000000     1.859000000
H    -8.104000000    -3.311000000     0.629000000
