215
-1469.68081
C    -0.633000000     2.747000000     4.672000000
H    -0.638000000     3.688000000     4.129000000
C     0.473000000     1.890000000     4.512000000
C     0.327000000     0.704000000     5.158000000
H     1.054000000    -0.102000000     5.111000000
C     1.619000000     2.201000000     3.579000000
O     1.824000000     3.585000000     3.362000000
H     1.213000000     1.883000000     2.608000000
O     2.779000000     1.510000000     3.899000000
C     3.482000000     0.925000000     2.897000000
C     3.407000000    -0.429000000     2.760000000
H     2.797000000    -0.979000000     3.473000000
C     4.031000000    -1.105000000     1.730000000
O     3.840000000    -2.459000000     1.631000000
C     4.670000000    -0.440000000     0.717000000
C     5.362000000    -1.149000000    -0.453000000
H     6.133000000    -0.470000000    -0.824000000
C     4.313000000    -1.343000000    -1.557000000
C     4.179000000    -0.371000000    -2.557000000
H     4.791000000     0.525000000    -2.498000000
H     5.799000000    -2.095000000    -0.126000000
C     4.828000000     0.967000000     0.894000000
H     5.364000000     1.484000000     0.102000000
C     4.162000000     1.636000000     1.884000000
C     4.230000000     3.168000000     1.905000000
H     5.089000000     3.559000000     1.356000000
H     4.412000000     3.508000000     2.927000000
C     3.011000000     3.780000000     1.238000000
C     3.006000000     4.052000000    -0.115000000
H     3.843000000     3.844000000    -0.777000000
C     1.852000000     4.007000000     1.978000000
C     0.671000000     4.393000000     1.299000000
H    -0.287000000     4.516000000     1.799000000
C     0.698000000     4.481000000    -0.035000000
O    -0.499000000     4.774000000    -0.659000000
C    -1.177000000     3.693000000    -1.357000000
C    -2.663000000     3.579000000    -1.025000000
C    -3.529000000     2.684000000    -1.725000000
H    -3.135000000     2.001000000    -2.473000000
C    -3.196000000     4.289000000     0.020000000
H    -2.587000000     5.080000000     0.449000000
O    -1.090000000     3.860000000    -2.748000000
H    -0.654000000     2.752000000    -1.130000000
C     1.862000000     4.425000000    -0.747000000
C     1.842000000     4.749000000    -2.240000000
H     2.871000000     4.936000000    -2.554000000
H     1.212000000     5.596000000    -2.519000000
C     1.364000000     3.528000000    -3.046000000
C     2.343000000     2.769000000    -3.644000000
H     3.401000000     3.018000000    -3.613000000
C     0.004000000     3.185000000    -3.305000000
C    -0.311000000     2.043000000    -4.044000000
H    -1.369000000     1.876000000    -4.227000000
C     0.690000000     1.193000000    -4.408000000
O     0.242000000     0.019000000    -4.959000000
C     0.268000000    -1.089000000    -4.073000000
C    -1.017000000    -1.947000000    -4.251000000
C    -2.290000000    -1.376000000    -4.432000000
H    -2.474000000    -0.322000000    -4.625000000
C    -0.965000000    -3.311000000    -3.922000000
H    -0.036000000    -3.807000000    -3.652000000
O     1.393000000    -1.872000000    -4.456000000
H     0.326000000    -0.733000000    -3.034000000
C     2.036000000     1.508000000    -4.243000000
C     3.107000000     0.496000000    -4.647000000
H     4.048000000     1.008000000    -4.858000000
H     2.893000000    -0.026000000    -5.583000000
C     3.231000000    -0.491000000    -3.536000000
C     2.534000000    -1.698000000    -3.578000000
C     2.731000000    -2.781000000    -2.721000000
H     2.115000000    -3.675000000    -2.775000000
C     3.520000000    -2.492000000    -1.574000000
O     3.537000000    -3.424000000    -0.504000000
C     2.846000000    -3.062000000     0.711000000
H     2.196000000    -2.228000000     0.409000000
C     1.954000000    -4.166000000     1.293000000
C     1.452000000    -4.008000000     2.574000000
H     1.767000000    -3.186000000     3.211000000
C     1.617000000    -5.232000000     0.478000000
H     2.016000000    -5.254000000    -0.533000000
C     0.724000000    -6.159000000     0.963000000
O     0.424000000    -7.214000000     0.187000000
C     0.220000000    -6.036000000     2.255000000
H    -0.473000000    -6.770000000     2.658000000
C     0.608000000    -5.005000000     3.046000000
O     0.079000000    -5.021000000     4.327000000
C     0.533000000    -4.033000000     5.168000000
C    -0.245000000    -2.869000000     5.438000000
H    -1.206000000    -2.838000000     4.931000000
C     1.637000000    -4.307000000     5.968000000
H     2.275000000    -5.149000000     5.708000000
C     1.922000000    -3.357000000     7.029000000
H     2.945000000    -3.378000000     7.397000000
C     1.147000000    -2.221000000     7.213000000
H     1.545000000    -1.452000000     7.870000000
C     0.046000000    -1.914000000     6.422000000
O    -0.822000000    -0.849000000     6.689000000
C    -0.716000000     0.371000000     6.074000000
C    -1.823000000     1.230000000     6.258000000
H    -2.711000000     0.965000000     6.828000000
C    -1.690000000     2.400000000     5.505000000
O    -2.765000000     3.251000000     5.616000000
C    -3.054000000     4.333000000     4.685000000
C    -3.765000000     4.086000000     3.529000000
H    -4.048000000     3.086000000     3.210000000
C    -2.768000000     5.630000000     5.034000000
H    -2.240000000     5.925000000     5.938000000
C    -3.250000000     6.689000000     4.315000000
H    -2.917000000     7.663000000     4.666000000
C    -3.908000000     6.482000000     3.173000000
H    -4.224000000     7.328000000     2.567000000
C    -4.188000000     5.172000000     2.717000000
O    -4.945000000     4.936000000     1.566000000
C    -4.466000000     4.158000000     0.495000000
C    -5.311000000     3.253000000    -0.167000000
H    -6.366000000     3.188000000     0.085000000
C    -4.836000000     2.456000000    -1.226000000
O    -5.604000000     1.458000000    -1.819000000
C    -5.512000000     1.085000000    -3.184000000
C    -5.095000000    -0.183000000    -3.493000000
H    -4.751000000    -0.901000000    -2.753000000
C    -5.679000000     2.008000000    -4.203000000
H    -6.003000000     3.005000000    -3.915000000
C    -5.509000000     1.602000000    -5.560000000
H    -5.476000000     2.358000000    -6.341000000
C    -5.309000000     0.233000000    -5.848000000
H    -5.070000000    -0.126000000    -6.846000000
C    -5.053000000    -0.618000000    -4.782000000
O    -4.623000000    -1.822000000    -5.081000000
C    -3.363000000    -2.220000000    -4.603000000
C    -3.278000000    -3.608000000    -4.451000000
H    -4.140000000    -4.260000000    -4.561000000
C    -2.089000000    -4.175000000    -4.053000000
O    -2.032000000    -5.514000000    -3.687000000
C    -1.026000000    -6.217000000    -3.081000000
C    -0.222000000    -6.925000000    -3.979000000
H    -0.475000000    -6.682000000    -5.007000000
C     0.724000000    -7.768000000    -3.458000000
H     1.359000000    -8.262000000    -4.188000000
C     1.016000000    -7.823000000    -2.062000000
H     1.800000000    -8.443000000    -1.636000000
C     0.178000000    -7.118000000    -1.171000000
C    -0.805000000    -6.307000000    -1.704000000
H    -1.497000000    -5.769000000    -1.061000000
C    -1.841000000    -2.448000000    -0.899000000
H    -1.834000000    -3.474000000    -1.258000000
C    -0.651000000    -1.716000000    -0.640000000
H     0.315000000    -2.177000000    -0.833000000
C    -0.676000000    -0.376000000    -0.263000000
H     0.239000000     0.219000000    -0.131000000
C    -1.898000000     0.277000000    -0.071000000
H    -1.886000000     1.331000000     0.195000000
C    -3.057000000    -0.465000000    -0.198000000
H    -4.029000000    -0.010000000    -0.021000000
C    -3.084000000    -1.850000000    -0.582000000
C    -4.356000000    -2.584000000    -0.716000000
O    -5.446000000    -2.049000000    -0.612000000
O    -4.305000000    -3.775000000    -1.021000000
O    -8.731000000    -2.280000000    -5.382000000
H    -8.242000000    -2.508000000    -4.591000000
H    -8.478000000    -2.946000000    -6.021000000
O    -5.515000000     0.932000000     2.196000000
H    -6.164000000     0.307000000     1.874000000
H    -5.203000000     1.380000000     1.410000000
O    -7.478000000    -0.658000000     0.871000000
H    -6.773000000    -1.275000000     0.674000000
H    -7.751000000    -0.326000000     0.016000000
O    -3.187000000    -6.700000000     3.341000000
H    -3.116000000    -5.915000000     2.798000000
H    -3.185000000    -7.425000000     2.716000000
O    -8.418000000     0.365000000    -1.434000000
H    -8.988000000     0.729000000    -0.756000000
H    -8.318000000     1.075000000    -2.069000000
O    -6.915000000    -4.709000000     0.651000000
H    -7.540000000    -5.043000000     0.007000000
H    -6.345000000    -4.125000000     0.151000000
O    -4.902000000    -6.550000000    -1.245000000
H    -4.830000000    -5.640000000    -0.959000000
H    -4.997000000    -6.496000000    -2.196000000
O    -8.887000000    -7.079000000    -2.109000000
H    -8.973000000    -7.463000000    -1.236000000
H    -8.715000000    -6.151000000    -1.947000000
O    -6.371000000    -6.285000000     2.678000000
H    -5.697000000    -6.811000000     2.249000000
H    -6.671000000    -5.680000000     2.000000000
O    -9.337000000    -5.579000000     1.831000000
H    -8.626000000    -5.004000000     2.114000000
H   -10.133000000    -5.074000000     1.995000000
O    -1.797000000    -2.020000000     2.077000000
H    -1.765000000    -1.631000000     1.203000000
H    -2.037000000    -1.295000000     2.654000000
O    -7.546000000    -2.066000000    -2.390000000
H    -6.893000000    -2.044000000    -1.691000000
H    -7.913000000    -1.182000000    -2.402000000
O    -6.064000000    -4.539000000    -3.039000000
H    -6.174000000    -3.708000000    -3.499000000
H    -5.467000000    -4.337000000    -2.318000000
O    -6.364000000    -7.087000000    -3.882000000
H    -6.217000000    -6.170000000    -3.649000000
H    -7.136000000    -7.342000000    -3.377000000
O    -4.340000000    -3.199000000     4.082000000
H    -4.963000000    -3.800000000     3.674000000
H    -3.619000000    -3.140000000     3.455000000
O    -3.678000000    -0.314000000     3.902000000
H    -3.967000000    -0.194000000     4.807000000
H    -4.456000000    -0.129000000     3.376000000
O    -3.208000000    -4.470000000     1.555000000
H    -3.522000000    -4.246000000     0.679000000
H    -2.593000000    -3.771000000     1.775000000
O    -4.409000000    -8.154000000     0.889000000
H    -4.448000000    -7.507000000     0.185000000
H    -5.250000000    -8.609000000     0.842000000
O    -8.726000000    -4.496000000    -1.602000000
H    -9.520000000    -4.054000000    -1.298000000
H    -8.149000000    -3.786000000    -1.883000000
