215
-1461.73223
C    -1.559000000     2.464000000     4.651000000
H    -1.530000000     3.503000000     4.334000000
C    -0.452000000     1.602000000     4.585000000
C    -0.666000000     0.339000000     5.094000000
H     0.127000000    -0.405000000     5.100000000
C     0.857000000     1.945000000     3.783000000
O     1.010000000     3.324000000     3.575000000
H     0.782000000     1.390000000     2.836000000
O     2.025000000     1.437000000     4.421000000
C     2.975000000     0.883000000     3.519000000
C     3.009000000    -0.495000000     3.350000000
H     2.513000000    -1.056000000     4.138000000
C     3.791000000    -1.145000000     2.383000000
O     3.623000000    -2.541000000     2.298000000
C     4.701000000    -0.374000000     1.655000000
C     5.493000000    -0.980000000     0.491000000
H     6.428000000    -0.418000000     0.444000000
C     4.713000000    -1.226000000    -0.776000000
C     4.807000000    -0.304000000    -1.816000000
H     5.329000000     0.632000000    -1.633000000
H     5.952000000    -1.929000000     0.778000000
C     4.736000000     1.034000000     1.858000000
H     5.351000000     1.638000000     1.197000000
C     3.836000000     1.634000000     2.740000000
C     3.746000000     3.161000000     2.744000000
H     4.678000000     3.665000000     2.480000000
H     3.579000000     3.523000000     3.761000000
C     2.617000000     3.673000000     1.857000000
C     2.829000000     3.997000000     0.464000000
H     3.858000000     3.971000000     0.115000000
C     1.293000000     3.724000000     2.325000000
C     0.256000000     4.290000000     1.543000000
H    -0.710000000     4.431000000     2.022000000
C     0.487000000     4.552000000     0.197000000
O    -0.554000000     4.855000000    -0.643000000
C    -1.107000000     3.844000000    -1.584000000
C    -2.674000000     3.797000000    -1.542000000
C    -3.410000000     3.207000000    -2.611000000
H    -2.900000000     3.155000000    -3.570000000
C    -3.395000000     3.930000000    -0.299000000
H    -2.800000000     4.332000000     0.518000000
O    -0.522000000     4.060000000    -2.936000000
H    -0.788000000     2.822000000    -1.334000000
C     1.805000000     4.422000000    -0.329000000
C     2.066000000     4.814000000    -1.769000000
H     3.120000000     5.078000000    -1.873000000
H     1.455000000     5.702000000    -1.945000000
C     1.837000000     3.616000000    -2.725000000
C     2.860000000     2.775000000    -3.111000000
H     3.842000000     2.987000000    -2.695000000
C     0.572000000     3.325000000    -3.234000000
C     0.377000000     2.191000000    -4.023000000
H    -0.663000000     2.041000000    -4.301000000
C     1.438000000     1.301000000    -4.347000000
O     1.138000000     0.160000000    -4.967000000
C     1.061000000    -1.000000000    -4.120000000
C    -0.064000000    -1.900000000    -4.502000000
C    -1.301000000    -1.330000000    -4.783000000
H    -1.438000000    -0.256000000    -4.687000000
C     0.109000000    -3.288000000    -4.541000000
H     1.109000000    -3.703000000    -4.441000000
O     2.341000000    -1.711000000    -4.130000000
H     0.766000000    -0.736000000    -3.094000000
C     2.721000000     1.596000000    -3.889000000
C     3.911000000     0.664000000    -4.095000000
H     4.814000000     1.277000000    -4.113000000
H     3.876000000     0.196000000    -5.081000000
C     3.957000000    -0.391000000    -2.949000000
C     3.137000000    -1.556000000    -3.023000000
C     3.070000000    -2.472000000    -2.002000000
H     2.407000000    -3.313000000    -2.188000000
C     3.883000000    -2.388000000    -0.874000000
O     3.756000000    -3.371000000     0.116000000
C     2.880000000    -2.964000000     1.180000000
H     2.303000000    -2.076000000     0.881000000
C     1.832000000    -4.071000000     1.497000000
C     1.263000000    -4.098000000     2.768000000
H     1.713000000    -3.385000000     3.454000000
C     1.374000000    -5.050000000     0.617000000
H     1.779000000    -4.878000000    -0.377000000
C     0.339000000    -5.921000000     0.933000000
O    -0.126000000    -6.817000000     0.016000000
C    -0.069000000    -5.994000000     2.257000000
H    -0.725000000    -6.755000000     2.671000000
C     0.390000000    -5.079000000     3.174000000
O    -0.048000000    -5.179000000     4.457000000
C    -0.005000000    -4.130000000     5.306000000
C    -1.007000000    -3.189000000     5.379000000
H    -1.942000000    -3.243000000     4.829000000
C     1.177000000    -4.020000000     6.113000000
H     1.974000000    -4.750000000     5.992000000
C     1.321000000    -3.029000000     7.045000000
H     2.156000000    -2.904000000     7.730000000
C     0.188000000    -2.206000000     7.221000000
H     0.190000000    -1.514000000     8.059000000
C    -0.919000000    -2.161000000     6.359000000
O    -1.951000000    -1.220000000     6.427000000
C    -1.804000000     0.025000000     5.861000000
C    -2.787000000     0.943000000     5.995000000
H    -3.677000000     0.690000000     6.566000000
C    -2.712000000     2.149000000     5.365000000
O    -3.709000000     3.027000000     5.431000000
C    -4.125000000     3.894000000     4.417000000
C    -4.562000000     3.280000000     3.188000000
H    -4.500000000     2.204000000     3.049000000
C    -4.295000000     5.247000000     4.621000000
H    -4.062000000     5.673000000     5.593000000
C    -4.836000000     6.054000000     3.654000000
H    -4.870000000     7.119000000     3.872000000
C    -5.220000000     5.528000000     2.423000000
H    -5.637000000     6.204000000     1.680000000
C    -5.045000000     4.143000000     2.201000000
O    -5.510000000     3.663000000     1.008000000
C    -4.749000000     3.552000000    -0.152000000
C    -5.366000000     3.109000000    -1.247000000
H    -6.437000000     2.921000000    -1.224000000
C    -4.702000000     2.895000000    -2.475000000
O    -5.463000000     2.562000000    -3.539000000
C    -4.988000000     1.764000000    -4.597000000
C    -4.451000000     0.522000000    -4.279000000
H    -4.553000000     0.020000000    -3.320000000
C    -4.723000000     2.340000000    -5.867000000
H    -4.856000000     3.418000000    -5.895000000
C    -4.190000000     1.480000000    -6.862000000
H    -4.205000000     1.973000000    -7.831000000
C    -3.803000000     0.172000000    -6.586000000
H    -3.400000000    -0.457000000    -7.376000000
C    -3.933000000    -0.300000000    -5.301000000
O    -3.650000000    -1.594000000    -5.111000000
C    -2.389000000    -2.122000000    -4.950000000
C    -2.270000000    -3.521000000    -4.935000000
H    -3.186000000    -4.103000000    -4.985000000
C    -1.052000000    -4.135000000    -4.749000000
O    -1.102000000    -5.446000000    -4.487000000
C    -0.355000000    -6.076000000    -3.612000000
C     0.783000000    -6.699000000    -4.032000000
H     0.901000000    -6.761000000    -5.111000000
C     1.573000000    -7.379000000    -3.161000000
H     2.398000000    -7.984000000    -3.526000000
C     1.290000000    -7.492000000    -1.830000000
H     1.871000000    -8.063000000    -1.109000000
C     0.187000000    -6.782000000    -1.361000000
C    -0.640000000    -6.098000000    -2.264000000
H    -1.552000000    -5.659000000    -1.868000000
C    -1.669000000    -2.028000000    -0.789000000
H    -1.675000000    -3.067000000    -1.109000000
C    -0.382000000    -1.541000000    -0.447000000
H     0.469000000    -2.216000000    -0.483000000
C    -0.216000000    -0.247000000     0.016000000
H     0.761000000     0.155000000     0.275000000
C    -1.377000000     0.557000000     0.194000000
H    -1.290000000     1.600000000     0.490000000
C    -2.616000000     0.102000000    -0.152000000
H    -3.535000000     0.600000000     0.146000000
C    -2.776000000    -1.224000000    -0.622000000
C    -4.092000000    -1.798000000    -0.998000000
O    -5.103000000    -1.061000000    -0.862000000
O    -4.177000000    -2.985000000    -1.201000000
O    -8.237000000    -3.106000000    -5.766000000
H    -7.494000000    -3.709000000    -5.787000000
H    -7.942000000    -2.345000000    -6.266000000
O    -5.300000000    -2.753000000    -7.327000000
H    -5.040000000    -2.931000000    -8.231000000
H    -4.483000000    -2.796000000    -6.830000000
O    -7.304000000    -0.130000000    -2.267000000
H    -6.494000000    -0.465000000    -1.882000000
H    -7.632000000     0.500000000    -1.625000000
O    -5.143000000    -3.663000000    -3.527000000
H    -5.763000000    -2.941000000    -3.636000000
H    -4.746000000    -3.511000000    -2.670000000
O    -3.262000000    -8.236000000     0.041000000
H    -3.036000000    -7.306000000     0.072000000
H    -2.531000000    -8.675000000     0.475000000
O    -8.738000000     0.425000000    -4.894000000
H    -8.222000000     0.012000000    -5.587000000
H    -8.281000000     0.193000000    -4.086000000
O    -8.317000000    -5.203000000     0.200000000
H    -8.450000000    -5.461000000    -0.712000000
H    -8.043000000    -6.007000000     0.639000000
O    -5.161000000    -6.458000000    -2.104000000
H    -4.913000000    -5.873000000    -2.820000000
H    -4.623000000    -6.174000000    -1.365000000
O    -6.307000000    -6.775000000     1.473000000
H    -5.988000000    -6.676000000     2.370000000
H    -5.555000000    -7.113000000     0.987000000
O    -3.355000000    -4.800000000     2.271000000
H    -4.264000000    -4.529000000     2.400000000
H    -2.843000000    -4.009000000     2.441000000
O    -9.805000000    -3.049000000     0.692000000
H    -9.302000000    -2.482000000     1.276000000
H    -9.248000000    -3.816000000     0.564000000
O    -8.499000000    -2.797000000    -1.690000000
H    -8.745000000    -2.621000000    -0.782000000
H    -7.750000000    -2.225000000    -1.851000000
O    -6.113000000    -3.104000000     0.960000000
H    -6.593000000    -3.857000000     0.614000000
H    -5.705000000    -2.706000000     0.191000000
O    -6.329000000     0.653000000     0.605000000
H    -5.908000000    -0.031000000     0.085000000
H    -5.610000000     1.224000000     0.877000000
O    -5.057000000    -0.653000000     3.423000000
H    -5.283000000    -0.176000000     4.222000000
H    -5.879000000    -0.711000000     2.937000000
O    -2.788000000    -2.058000000     2.998000000
H    -2.522000000    -1.626000000     2.187000000
H    -3.507000000    -1.520000000     3.331000000
O    -7.885000000    -1.204000000     1.936000000
H    -7.208000000    -1.866000000     1.799000000
H    -7.605000000    -0.459000000     1.404000000
O    -3.753000000    -5.373000000    -0.195000000
H    -3.998000000    -4.528000000    -0.572000000
H    -3.591000000    -5.184000000     0.730000000
O    -5.523000000    -5.842000000    -5.014000000
H    -5.505000000    -4.944000000    -4.682000000
H    -6.339000000    -6.207000000    -4.672000000
