215
-1451.62643
C    -1.509000000     1.330000000     4.835000000
H    -1.624000000     2.359000000     4.504000000
C    -0.296000000     0.654000000     4.744000000
C    -0.202000000    -0.627000000     5.306000000
H     0.771000000    -1.103000000     5.213000000
C     0.933000000     1.155000000     3.954000000
O     0.789000000     2.565000000     3.835000000
H     0.912000000     0.774000000     2.922000000
O     2.231000000     0.966000000     4.527000000
C     3.166000000     0.549000000     3.593000000
C     3.288000000    -0.864000000     3.356000000
H     2.767000000    -1.629000000     3.926000000
C     4.010000000    -1.281000000     2.259000000
O     3.760000000    -2.541000000     1.863000000
C     4.830000000    -0.440000000     1.489000000
C     5.544000000    -0.836000000     0.230000000
H     6.362000000    -0.119000000     0.135000000
C     4.706000000    -0.935000000    -1.079000000
C     4.618000000     0.172000000    -1.870000000
H     5.062000000     1.108000000    -1.541000000
H     6.082000000    -1.768000000     0.418000000
C     4.789000000     0.962000000     1.817000000
H     5.384000000     1.656000000     1.229000000
C     3.876000000     1.428000000     2.785000000
C     3.674000000     2.925000000     2.932000000
H     4.528000000     3.522000000     2.604000000
H     3.573000000     3.125000000     4.001000000
C     2.449000000     3.473000000     2.204000000
C     2.621000000     4.151000000     1.011000000
H     3.596000000     4.279000000     0.548000000
C     1.173000000     3.289000000     2.704000000
C     0.044000000     3.865000000     2.070000000
H    -0.920000000     3.648000000     2.523000000
C     0.201000000     4.473000000     0.828000000
O    -0.981000000     4.764000000     0.106000000
C    -1.305000000     3.948000000    -0.997000000
C    -2.832000000     3.752000000    -1.009000000
C    -3.511000000     3.575000000    -2.187000000
H    -3.082000000     3.803000000    -3.160000000
C    -3.439000000     3.604000000     0.245000000
H    -2.991000000     3.853000000     1.203000000
O    -0.754000000     4.556000000    -2.116000000
H    -0.759000000     3.009000000    -0.823000000
C     1.498000000     4.628000000     0.302000000
C     1.760000000     5.216000000    -1.091000000
H     2.811000000     5.509000000    -1.111000000
H     1.264000000     6.160000000    -1.327000000
C     1.557000000     4.143000000    -2.123000000
C     2.679000000     3.429000000    -2.515000000
H     3.698000000     3.606000000    -2.180000000
C     0.255000000     3.905000000    -2.673000000
C     0.149000000     2.811000000    -3.481000000
H    -0.855000000     2.505000000    -3.766000000
C     1.270000000     2.117000000    -3.891000000
O     0.896000000     1.049000000    -4.730000000
C     0.793000000    -0.236000000    -4.071000000
C    -0.427000000    -1.113000000    -4.481000000
C    -1.612000000    -0.439000000    -4.781000000
H    -1.696000000     0.633000000    -4.619000000
C    -0.456000000    -2.519000000    -4.458000000
H     0.493000000    -3.002000000    -4.237000000
O     1.969000000    -0.931000000    -4.303000000
H     0.578000000     0.037000000    -3.027000000
C     2.571000000     2.373000000    -3.398000000
C     3.650000000     1.473000000    -3.876000000
H     4.562000000     2.074000000    -3.879000000
H     3.602000000     1.316000000    -4.956000000
C     3.829000000     0.187000000    -3.085000000
C     2.899000000    -0.887000000    -3.238000000
C     3.007000000    -1.944000000    -2.402000000
H     2.419000000    -2.832000000    -2.616000000
C     3.860000000    -1.985000000    -1.347000000
O     3.655000000    -2.994000000    -0.436000000
C     2.878000000    -2.705000000     0.727000000
H     2.166000000    -1.875000000     0.604000000
C     1.963000000    -3.960000000     0.961000000
C     1.582000000    -4.322000000     2.276000000
H     2.089000000    -3.761000000     3.056000000
C     1.413000000    -4.683000000    -0.124000000
H     1.619000000    -4.306000000    -1.122000000
C     0.624000000    -5.773000000     0.080000000
O     0.144000000    -6.571000000    -0.911000000
C     0.322000000    -6.183000000     1.423000000
H    -0.127000000    -7.160000000     1.588000000
C     0.809000000    -5.449000000     2.492000000
O     0.674000000    -5.906000000     3.750000000
C     0.725000000    -5.143000000     4.839000000
C    -0.214000000    -4.151000000     5.012000000
H    -0.977000000    -4.119000000     4.238000000
C     1.650000000    -5.413000000     5.838000000
H     2.453000000    -6.127000000     5.673000000
C     1.550000000    -4.789000000     7.095000000
H     2.324000000    -4.960000000     7.840000000
C     0.564000000    -3.780000000     7.253000000
H     0.583000000    -3.181000000     8.160000000
C    -0.248000000    -3.463000000     6.150000000
O    -1.283000000    -2.659000000     6.329000000
C    -1.312000000    -1.303000000     5.846000000
C    -2.493000000    -0.665000000     5.868000000
H    -3.367000000    -1.224000000     6.189000000
C    -2.592000000     0.654000000     5.400000000
O    -3.725000000     1.443000000     5.564000000
C    -4.191000000     2.459000000     4.781000000
C    -4.580000000     2.243000000     3.501000000
H    -4.509000000     1.253000000     3.057000000
C    -4.056000000     3.791000000     5.205000000
H    -3.618000000     4.032000000     6.171000000
C    -4.454000000     4.873000000     4.448000000
H    -4.399000000     5.804000000     5.008000000
C    -4.918000000     4.634000000     3.129000000
H    -5.159000000     5.433000000     2.432000000
C    -5.015000000     3.254000000     2.668000000
O    -5.384000000     2.899000000     1.394000000
C    -4.777000000     3.255000000     0.245000000
C    -5.500000000     3.142000000    -0.929000000
H    -6.551000000     2.864000000    -0.907000000
C    -4.874000000     3.373000000    -2.135000000
O    -5.553000000     3.263000000    -3.283000000
C    -4.991000000     2.724000000    -4.428000000
C    -4.719000000     1.336000000    -4.442000000
H    -4.836000000     0.708000000    -3.563000000
C    -4.764000000     3.507000000    -5.554000000
H    -5.023000000     4.562000000    -5.566000000
C    -4.380000000     2.799000000    -6.734000000
H    -4.366000000     3.422000000    -7.624000000
C    -4.124000000     1.437000000    -6.742000000
H    -3.751000000     0.906000000    -7.614000000
C    -4.268000000     0.701000000    -5.571000000
O    -3.933000000    -0.659000000    -5.628000000
C    -2.753000000    -1.222000000    -5.160000000
C    -2.692000000    -2.606000000    -5.312000000
H    -3.567000000    -3.172000000    -5.623000000
C    -1.572000000    -3.283000000    -4.830000000
O    -1.546000000    -4.640000000    -4.870000000
C    -0.582000000    -5.403000000    -4.252000000
C     0.652000000    -5.674000000    -4.923000000
H     0.782000000    -5.234000000    -5.908000000
C     1.647000000    -6.383000000    -4.283000000
H     2.562000000    -6.614000000    -4.822000000
C     1.483000000    -6.751000000    -2.909000000
H     2.331000000    -7.232000000    -2.428000000
C     0.280000000    -6.389000000    -2.288000000
C    -0.760000000    -5.776000000    -2.875000000
H    -1.647000000    -5.492000000    -2.315000000
C    -1.683000000    -2.050000000    -1.164000000
H    -1.627000000    -3.016000000    -1.660000000
C    -0.488000000    -1.392000000    -0.931000000
H     0.426000000    -1.932000000    -1.165000000
C    -0.519000000    -0.083000000    -0.425000000
H     0.337000000     0.486000000    -0.196000000
C    -1.797000000     0.387000000    -0.067000000
H    -1.918000000     1.301000000     0.508000000
C    -2.936000000    -0.336000000    -0.131000000
H    -3.884000000     0.030000000     0.256000000
C    -2.919000000    -1.557000000    -0.722000000
C    -4.202000000    -2.370000000    -0.822000000
O    -5.257000000    -1.804000000    -0.662000000
O    -4.095000000    -3.555000000    -0.973000000
O    -5.055000000    -6.080000000    -4.031000000
H    -5.213000000    -7.018000000    -4.137000000
H    -5.277000000    -5.901000000    -3.117000000
O    -5.063000000    -4.452000000     3.383000000
H    -5.438000000    -4.008000000     4.143000000
H    -4.480000000    -3.802000000     2.990000000
O    -5.696000000    -3.195000000    -3.250000000
H    -5.110000000    -3.256000000    -2.495000000
H    -5.175000000    -3.519000000    -3.984000000
O    -4.586000000    -8.542000000    -1.357000000
H    -4.713000000    -7.597000000    -1.439000000
H    -3.636000000    -8.653000000    -1.308000000
O    -7.939000000    -5.808000000     0.255000000
H    -8.529000000    -5.510000000    -0.437000000
H    -8.377000000    -5.555000000     1.068000000
O    -5.222000000    -5.859000000    -1.155000000
H    -6.016000000    -5.944000000    -0.628000000
H    -4.758000000    -5.115000000    -0.770000000
O    -6.060000000    -6.885000000     2.273000000
H    -6.078000000    -6.324000000     3.048000000
H    -6.674000000    -6.473000000     1.665000000
O    -2.258000000    -4.661000000     0.791000000
H    -2.736000000    -4.316000000     0.037000000
H    -2.210000000    -3.924000000     1.401000000
O    -9.650000000    -3.214000000     0.505000000
H    -9.693000000    -2.790000000    -0.351000000
H    -8.726000000    -3.170000000     0.749000000
O    -7.410000000    -0.908000000    -3.410000000
H    -7.851000000    -0.929000000    -4.259000000
H    -6.848000000    -1.683000000    -3.413000000
O    -8.107000000    -4.932000000    -2.518000000
H    -7.511000000    -4.202000000    -2.687000000
H    -7.691000000    -5.684000000    -2.940000000
O   -10.004000000    -2.886000000    -2.094000000
H   -10.439000000    -2.861000000    -2.947000000
H    -9.313000000    -3.540000000    -2.196000000
O    -8.391000000     0.717000000     1.404000000
H    -7.930000000     0.209000000     2.072000000
H    -7.894000000     0.561000000     0.601000000
O    -6.935000000    -2.878000000     0.873000000
H    -6.202000000    -3.274000000     1.344000000
H    -6.525000000    -2.262000000     0.266000000
O    -7.355000000     0.354000000    -0.894000000
H    -6.457000000     0.031000000    -0.970000000
H    -7.733000000     0.218000000    -1.763000000
O    -4.654000000    -1.546000000     2.314000000
H    -5.527000000    -1.245000000     2.565000000
H    -4.627000000    -1.438000000     1.363000000
O    -2.067000000    -2.466000000     2.566000000
H    -2.884000000    -2.132000000     2.935000000
H    -1.481000000    -1.709000000     2.559000000
O    -7.042000000    -0.593000000     3.484000000
H    -6.785000000    -0.137000000     4.285000000
H    -7.242000000    -1.485000000     3.770000000
O    -2.956000000    -7.127000000     1.412000000
H    -3.692000000    -7.024000000     2.016000000
H    -2.581000000    -6.250000000     1.340000000
