215
-1424.31181
C    -2.261000000     0.500000000     4.684000000
H    -2.479000000     1.483000000     4.274000000
C    -0.919000000     0.018000000     4.769000000
C    -0.590000000    -1.279000000     5.200000000
H     0.393000000    -1.702000000     5.391000000
C     0.240000000     0.910000000     4.381000000
O    -0.051000000     2.289000000     4.561000000
H     0.344000000     0.801000000     3.292000000
O     1.586000000     0.549000000     4.833000000
C     2.570000000     0.489000000     3.946000000
C     2.937000000    -0.744000000     3.377000000
H     2.479000000    -1.613000000     3.841000000
C     3.738000000    -0.806000000     2.256000000
O     3.988000000    -2.052000000     1.696000000
C     4.349000000     0.321000000     1.829000000
C     5.410000000     0.291000000     0.744000000
H     6.117000000     1.114000000     0.873000000
C     4.791000000     0.219000000    -0.679000000
C     4.640000000     1.469000000    -1.347000000
H     4.963000000     2.414000000    -0.918000000
H     6.008000000    -0.601000000     0.945000000
C     4.089000000     1.544000000     2.408000000
H     4.581000000     2.409000000     1.970000000
C     3.148000000     1.641000000     3.474000000
C     2.711000000     2.988000000     3.976000000
H     3.546000000     3.691000000     3.939000000
H     2.523000000     2.885000000     5.047000000
C     1.516000000     3.558000000     3.196000000
C     1.664000000     4.428000000     2.105000000
H     2.671000000     4.636000000     1.752000000
C     0.229000000     3.173000000     3.575000000
C    -0.806000000     3.515000000     2.826000000
H    -1.814000000     3.134000000     2.967000000
C    -0.673000000     4.335000000     1.657000000
O    -1.748000000     4.539000000     0.911000000
C    -1.864000000     3.801000000    -0.284000000
C    -3.305000000     3.137000000    -0.442000000
C    -3.612000000     2.422000000    -1.598000000
H    -3.013000000     2.511000000    -2.501000000
C    -4.197000000     3.009000000     0.664000000
H    -3.957000000     3.546000000     1.578000000
O    -1.426000000     4.541000000    -1.521000000
H    -1.166000000     2.952000000    -0.251000000
C     0.579000000     4.755000000     1.267000000
C     0.791000000     5.613000000     0.052000000
H     1.744000000     6.134000000     0.168000000
H    -0.038000000     6.300000000    -0.129000000
C     0.965000000     4.734000000    -1.202000000
C     2.239000000     4.232000000    -1.576000000
H     3.030000000     4.509000000    -0.883000000
C    -0.148000000     4.265000000    -1.950000000
C     0.051000000     3.589000000    -3.097000000
H    -0.852000000     3.331000000    -3.645000000
C     1.242000000     3.040000000    -3.408000000
O     1.278000000     2.096000000    -4.428000000
C     1.334000000     0.677000000    -4.057000000
C     0.543000000    -0.267000000    -4.950000000
C    -0.684000000     0.171000000    -5.541000000
H    -0.868000000     1.240000000    -5.473000000
C     0.696000000    -1.694000000    -4.792000000
H     1.501000000    -2.043000000    -4.151000000
O     2.732000000     0.295000000    -4.148000000
H     0.977000000     0.572000000    -3.022000000
C     2.365000000     3.453000000    -2.706000000
C     3.690000000     2.919000000    -3.106000000
H     4.504000000     3.599000000    -2.850000000
H     3.774000000     2.962000000    -4.194000000
C     4.021000000     1.491000000    -2.591000000
C     3.500000000     0.325000000    -3.037000000
C     3.657000000    -0.913000000    -2.410000000
H     3.280000000    -1.858000000    -2.793000000
C     4.347000000    -0.984000000    -1.287000000
O     4.449000000    -2.152000000    -0.582000000
C     3.398000000    -2.366000000     0.424000000
H     2.723000000    -1.541000000     0.153000000
C     2.744000000    -3.705000000     0.315000000
C     1.706000000    -4.027000000     1.258000000
H     1.519000000    -3.403000000     2.129000000
C     2.807000000    -4.468000000    -0.833000000
H     3.489000000    -4.136000000    -1.612000000
C     2.169000000    -5.685000000    -0.931000000
O     2.376000000    -6.394000000    -2.064000000
C     1.317000000    -6.058000000     0.122000000
H     0.704000000    -6.950000000     0.023000000
C     1.056000000    -5.220000000     1.210000000
O     0.049000000    -5.580000000     2.093000000
C     0.143000000    -5.493000000     3.451000000
C    -0.592000000    -4.440000000     4.047000000
H    -1.073000000    -3.673000000     3.445000000
C     0.701000000    -6.527000000     4.225000000
H     1.109000000    -7.409000000     3.739000000
C     0.543000000    -6.450000000     5.579000000
H     1.047000000    -7.255000000     6.107000000
C    -0.019000000    -5.358000000     6.186000000
H    -0.253000000    -5.317000000     7.247000000
C    -0.540000000    -4.318000000     5.404000000
O    -1.320000000    -3.339000000     6.045000000
C    -1.659000000    -2.077000000     5.561000000
C    -3.005000000    -1.680000000     5.579000000
H    -3.774000000    -2.293000000     6.042000000
C    -3.265000000    -0.390000000     5.103000000
O    -4.577000000    -0.038000000     5.148000000
C    -5.046000000     1.135000000     4.681000000
C    -5.643000000     1.150000000     3.454000000
H    -5.620000000     0.262000000     2.829000000
C    -5.010000000     2.174000000     5.462000000
H    -4.429000000     2.187000000     6.381000000
C    -5.410000000     3.439000000     4.920000000
H    -5.343000000     4.432000000     5.358000000
C    -5.838000000     3.458000000     3.587000000
H    -6.033000000     4.386000000     3.056000000
C    -6.026000000     2.300000000     2.888000000
O    -6.365000000     2.294000000     1.488000000
C    -5.358000000     2.270000000     0.527000000
C    -5.689000000     1.678000000    -0.679000000
H    -6.639000000     1.166000000    -0.807000000
C    -4.803000000     1.706000000    -1.686000000
O    -5.028000000     0.990000000    -2.881000000
C    -4.550000000     1.282000000    -4.079000000
C    -4.026000000     0.274000000    -4.842000000
H    -4.041000000    -0.748000000    -4.472000000
C    -4.516000000     2.602000000    -4.484000000
H    -4.863000000     3.423000000    -3.862000000
C    -3.974000000     2.942000000    -5.713000000
H    -3.891000000     3.981000000    -6.020000000
C    -3.436000000     1.918000000    -6.452000000
H    -2.892000000     2.181000000    -7.355000000
C    -3.386000000     0.660000000    -6.030000000
O    -2.726000000    -0.256000000    -6.716000000
C    -1.609000000    -0.718000000    -6.128000000
C    -1.294000000    -2.030000000    -6.077000000
H    -2.054000000    -2.768000000    -6.317000000
C    -0.178000000    -2.491000000    -5.433000000
O    -0.092000000    -3.856000000    -5.193000000
C     1.112000000    -4.513000000    -4.919000000
C     2.120000000    -4.712000000    -5.866000000
H     1.990000000    -4.285000000    -6.857000000
C     3.252000000    -5.460000000    -5.538000000
H     4.058000000    -5.530000000    -6.264000000
C     3.394000000    -5.961000000    -4.205000000
H     4.359000000    -6.386000000    -3.940000000
C     2.309000000    -5.849000000    -3.291000000
C     1.230000000    -5.040000000    -3.662000000
H     0.420000000    -4.899000000    -2.950000000
C    -0.947000000    -2.398000000    -0.507000000
H    -0.785000000    -3.275000000    -1.129000000
C    -0.040000000    -1.359000000    -0.606000000
H     0.864000000    -1.488000000    -1.196000000
C    -0.270000000    -0.156000000     0.071000000
H     0.451000000     0.628000000    -0.056000000
C    -1.396000000    -0.029000000     0.839000000
H    -1.540000000     0.893000000     1.397000000
C    -2.337000000    -1.082000000     1.002000000
H    -3.126000000    -1.065000000     1.750000000
C    -2.123000000    -2.303000000     0.250000000
C    -3.131000000    -3.418000000     0.334000000
O    -4.191000000    -3.179000000     0.852000000
O    -2.944000000    -4.462000000    -0.314000000
O    -6.900000000    -6.783000000     1.399000000
H    -6.159000000    -6.310000000     1.777000000
H    -7.509000000    -6.897000000     2.128000000
O    -3.575000000    -5.967000000     5.923000000
H    -4.232000000    -5.337000000     5.628000000
H    -3.201000000    -6.319000000     5.116000000
O    -0.737000000    -7.398000000    -3.149000000
H    -0.259000000    -7.706000000    -2.379000000
H    -1.374000000    -6.773000000    -2.802000000
O    -5.288000000    -5.643000000    -1.705000000
H    -4.699000000    -5.072000000    -1.211000000
H    -5.181000000    -6.504000000    -1.301000000
O    -5.522000000    -4.160000000     4.864000000
H    -6.198000000    -4.052000000     5.532000000
H    -5.163000000    -3.281000000     4.741000000
O    -2.658000000    -5.492000000    -2.808000000
H    -3.511000000    -5.400000000    -3.231000000
H    -2.727000000    -4.966000000    -2.011000000
O    -4.798000000    -5.209000000     2.341000000
H    -4.550000000    -4.610000000     1.636000000
H    -5.109000000    -4.637000000     3.043000000
O    -4.971000000    -2.778000000    -5.851000000
H    -4.725000000    -3.508000000    -5.282000000
H    -5.868000000    -2.976000000    -6.119000000
O    -6.385000000    -2.526000000    -2.644000000
H    -6.216000000    -2.522000000    -1.702000000
H    -5.539000000    -2.319000000    -3.040000000
O    -8.453000000    -4.968000000    -0.586000000
H    -8.592000000    -5.871000000    -0.302000000
H    -7.538000000    -4.787000000    -0.372000000
O    -5.190000000    -5.215000000    -4.225000000
H    -5.226000000    -6.097000000    -4.596000000
H    -5.416000000    -5.335000000    -3.302000000
O    -6.644000000    -2.132000000     0.275000000
H    -5.777000000    -2.537000000     0.303000000
H    -7.050000000    -2.378000000     1.106000000
O    -2.064000000    -6.824000000     0.617000000
H    -1.370000000    -6.484000000     1.182000000
H    -2.593000000    -6.056000000     0.399000000
O    -0.712000000    -9.354000000    -0.750000000
H    -1.324000000    -8.663000000    -0.496000000
H    -0.219000000    -9.542000000     0.049000000
O    -3.813000000    -7.659000000     3.615000000
H    -4.669000000    -8.067000000     3.744000000
H    -3.960000000    -7.006000000     2.930000000
O    -7.888000000    -3.460000000     2.828000000
H    -8.030000000    -4.353000000     3.142000000
H    -7.071000000    -3.187000000     3.247000000
O    -8.391000000    -0.532000000    -1.777000000
H    -8.025000000    -0.902000000    -0.973000000
H    -7.908000000    -0.966000000    -2.481000000
O    -5.170000000    -2.159000000     3.121000000
H    -4.743000000    -1.305000000     3.190000000
H    -4.727000000    -2.590000000     2.391000000
O    -4.241000000    -8.080000000    -0.619000000
H    -3.647000000    -7.770000000     0.064000000
H    -3.845000000    -8.896000000    -0.928000000
