215
-1452.30592
C    -2.392000000     0.876000000     5.230000000
H    -2.692000000     1.865000000     4.891000000
C    -1.202000000     0.420000000     4.944000000
C    -0.887000000    -0.937000000     5.200000000
H     0.062000000    -1.398000000     4.940000000
C    -0.149000000     1.335000000     4.341000000
O    -0.374000000     2.785000000     4.494000000
H    -0.206000000     1.127000000     3.262000000
O     1.172000000     1.095000000     4.751000000
C     2.203000000     1.070000000     3.812000000
C     2.596000000    -0.179000000     3.306000000
H     2.141000000    -1.117000000     3.613000000
C     3.641000000    -0.305000000     2.417000000
O     4.103000000    -1.539000000     2.106000000
C     4.272000000     0.886000000     1.927000000
C     5.382000000     0.787000000     0.999000000
H     5.882000000     1.755000000     0.922000000
C     4.863000000     0.689000000    -0.469000000
C     4.593000000     1.814000000    -1.229000000
H     4.822000000     2.780000000    -0.786000000
H     6.168000000     0.060000000     1.213000000
C     3.778000000     2.106000000     2.376000000
H     4.231000000     3.031000000     2.029000000
C     2.851000000     2.262000000     3.361000000
C     2.405000000     3.587000000     3.791000000
H     3.178000000     4.330000000     3.588000000
H     2.080000000     3.507000000     4.830000000
C     1.134000000     3.886000000     2.921000000
C     1.270000000     4.502000000     1.626000000
H     2.240000000     4.724000000     1.189000000
C    -0.191000000     3.505000000     3.294000000
C    -1.325000000     3.744000000     2.492000000
H    -2.301000000     3.313000000     2.702000000
C    -1.074000000     4.268000000     1.258000000
O    -2.157000000     4.335000000     0.444000000
C    -2.352000000     3.401000000    -0.668000000
C    -3.734000000     2.725000000    -0.615000000
C    -4.082000000     1.938000000    -1.685000000
H    -3.451000000     2.007000000    -2.568000000
C    -4.460000000     2.537000000     0.579000000
H    -4.089000000     2.927000000     1.523000000
O    -1.828000000     3.982000000    -1.927000000
H    -1.654000000     2.572000000    -0.477000000
C     0.163000000     4.685000000     0.807000000
C     0.295000000     5.384000000    -0.528000000
H     1.199000000     5.990000000    -0.438000000
H    -0.626000000     5.968000000    -0.585000000
C     0.584000000     4.443000000    -1.631000000
C     1.876000000     4.178000000    -1.965000000
H     2.647000000     4.748000000    -1.453000000
C    -0.475000000     3.893000000    -2.305000000
C    -0.199000000     2.973000000    -3.303000000
H    -1.032000000     2.459000000    -3.774000000
C     1.150000000     2.658000000    -3.655000000
O     1.337000000     1.761000000    -4.642000000
C     1.744000000     0.489000000    -4.224000000
C     0.996000000    -0.669000000    -4.951000000
C    -0.324000000    -0.469000000    -5.368000000
H    -0.812000000     0.455000000    -5.067000000
C     1.605000000    -1.875000000    -5.222000000
H     2.635000000    -2.034000000    -4.914000000
O     3.183000000     0.383000000    -4.281000000
H     1.276000000     0.329000000    -3.241000000
C     2.190000000     3.282000000    -2.988000000
C     3.672000000     2.988000000    -3.168000000
H     4.349000000     3.804000000    -2.907000000
H     3.884000000     2.861000000    -4.231000000
C     4.015000000     1.664000000    -2.466000000
C     3.779000000     0.426000000    -3.014000000
C     4.186000000    -0.717000000    -2.296000000
H     3.983000000    -1.726000000    -2.645000000
C     4.682000000    -0.590000000    -0.985000000
O     4.795000000    -1.713000000    -0.185000000
C     3.705000000    -1.966000000     0.710000000
H     2.776000000    -1.444000000     0.437000000
C     3.169000000    -3.381000000     0.676000000
C     2.080000000    -3.697000000     1.475000000
H     1.810000000    -3.025000000     2.286000000
C     3.386000000    -4.189000000    -0.419000000
H     4.183000000    -3.952000000    -1.119000000
C     2.589000000    -5.303000000    -0.638000000
O     2.765000000    -6.056000000    -1.836000000
C     1.599000000    -5.711000000     0.260000000
H     0.937000000    -6.547000000     0.049000000
C     1.340000000    -4.864000000     1.288000000
O     0.196000000    -5.167000000     2.012000000
C     0.145000000    -5.069000000     3.392000000
C    -0.505000000    -3.995000000     3.944000000
H    -1.019000000    -3.220000000     3.382000000
C     0.789000000    -6.016000000     4.197000000
H     1.408000000    -6.771000000     3.719000000
C     0.659000000    -5.934000000     5.566000000
H     1.173000000    -6.646000000     6.206000000
C    -0.127000000    -4.952000000     6.169000000
H    -0.339000000    -4.919000000     7.234000000
C    -0.740000000    -4.025000000     5.326000000
O    -1.727000000    -3.201000000     5.876000000
C    -1.848000000    -1.791000000     5.690000000
C    -3.036000000    -1.225000000     6.028000000
H    -3.853000000    -1.835000000     6.405000000
C    -3.364000000     0.138000000     5.817000000
O    -4.628000000     0.608000000     5.976000000
C    -5.173000000     1.541000000     5.154000000
C    -5.480000000     1.116000000     3.885000000
H    -5.047000000     0.156000000     3.616000000
C    -5.462000000     2.888000000     5.600000000
H    -5.281000000     3.156000000     6.638000000
C    -6.099000000     3.757000000     4.740000000
H    -6.218000000     4.799000000     5.025000000
C    -6.350000000     3.324000000     3.432000000
H    -6.858000000     3.897000000     2.661000000
C    -6.025000000     2.027000000     3.003000000
O    -6.393000000     1.528000000     1.745000000
C    -5.603000000     1.745000000     0.620000000
C    -6.012000000     1.008000000    -0.528000000
H    -6.847000000     0.314000000    -0.574000000
C    -5.195000000     1.101000000    -1.663000000
O    -5.529000000     0.402000000    -2.758000000
C    -4.883000000     0.467000000    -4.013000000
C    -3.804000000    -0.389000000    -4.298000000
H    -3.596000000    -1.218000000    -3.626000000
C    -5.351000000     1.348000000    -4.954000000
H    -6.099000000     2.107000000    -4.742000000
C    -4.678000000     1.419000000    -6.191000000
H    -4.983000000     2.233000000    -6.844000000
C    -3.672000000     0.571000000    -6.527000000
H    -3.277000000     0.606000000    -7.539000000
C    -3.302000000    -0.394000000    -5.618000000
O    -2.474000000    -1.473000000    -6.083000000
C    -1.112000000    -1.509000000    -5.917000000
C    -0.490000000    -2.730000000    -6.125000000
H    -0.985000000    -3.573000000    -6.600000000
C     0.872000000    -2.888000000    -5.819000000
O     1.383000000    -4.173000000    -5.954000000
C     2.265000000    -4.745000000    -5.135000000
C     3.628000000    -4.785000000    -5.641000000
H     3.883000000    -4.553000000    -6.672000000
C     4.618000000    -5.332000000    -4.824000000
H     5.625000000    -5.422000000    -5.224000000
C     4.286000000    -5.693000000    -3.522000000
H     5.054000000    -6.174000000    -2.922000000
C     2.992000000    -5.439000000    -3.025000000
C     1.968000000    -5.017000000    -3.833000000
H     0.996000000    -4.960000000    -3.350000000
C    -0.034000000    -2.353000000    -1.048000000
H     0.206000000    -3.156000000    -1.740000000
C     0.783000000    -1.167000000    -0.970000000
H     1.631000000    -1.063000000    -1.643000000
C     0.502000000    -0.113000000    -0.155000000
H     1.217000000     0.703000000    -0.234000000
C    -0.659000000    -0.109000000     0.611000000
H    -0.947000000     0.721000000     1.252000000
C    -1.482000000    -1.270000000     0.564000000
H    -2.411000000    -1.237000000     1.125000000
C    -1.122000000    -2.390000000    -0.153000000
C    -2.096000000    -3.517000000    -0.003000000
O    -2.827000000    -3.588000000     1.022000000
O    -2.062000000    -4.488000000    -0.745000000
O    -4.258000000    -8.536000000    -1.546000000
H    -4.050000000    -7.605000000    -1.633000000
H    -5.073000000    -8.646000000    -2.035000000
O    -1.106000000    -6.889000000    -4.588000000
H    -1.601000000    -6.130000000    -4.278000000
H    -0.623000000    -7.190000000    -3.819000000
O    -6.252000000    -4.724000000     1.252000000
H    -5.499000000    -5.309000000     1.333000000
H    -6.783000000    -4.908000000     2.028000000
O     0.066000000    -8.246000000    -2.300000000
H     0.142000000    -9.183000000    -2.119000000
H    -0.532000000    -7.920000000    -1.628000000
O    -4.439000000    -5.557000000    -1.344000000
H    -3.582000000    -5.242000000    -1.055000000
H    -4.948000000    -5.639000000    -0.538000000
O    -5.302000000    -8.231000000     2.924000000
H    -5.238000000    -7.293000000     3.108000000
H    -4.901000000    -8.333000000     2.061000000
O    -2.280000000    -4.558000000    -3.449000000
H    -3.228000000    -4.567000000    -3.585000000
H    -2.171000000    -4.725000000    -2.513000000
O    -3.839000000    -5.990000000     1.573000000
H    -3.380000000    -5.220000000     1.238000000
H    -3.170000000    -6.478000000     2.051000000
O    -5.473000000    -3.185000000    -5.855000000
H    -4.634000000    -3.529000000    -6.160000000
H    -5.413000000    -3.220000000    -4.900000000
O    -7.080000000    -5.612000000     3.766000000
H    -7.424000000    -6.024000000     4.558000000
H    -6.171000000    -5.403000000     3.981000000
O    -5.970000000    -2.736000000    -2.864000000
H    -5.636000000    -2.228000000    -2.125000000
H    -5.734000000    -3.641000000    -2.658000000
O    -2.316000000    -7.824000000     2.817000000
H    -2.383000000    -8.286000000     3.652000000
H    -1.621000000    -7.181000000     2.954000000
O    -5.024000000    -5.017000000    -3.938000000
H    -4.798000000    -5.598000000    -4.664000000
H    -4.935000000    -5.563000000    -3.157000000
O    -8.131000000    -4.474000000    -0.490000000
H    -7.850000000    -5.043000000    -1.207000000
H    -7.361000000    -4.403000000     0.074000000
O    -5.233000000    -2.282000000    -0.030000000
H    -4.360000000    -1.926000000     0.134000000
H    -5.212000000    -3.157000000     0.357000000
O    -1.693000000    -7.090000000    -0.581000000
H    -2.327000000    -7.288000000     0.109000000
H    -1.639000000    -6.135000000    -0.590000000
O    -0.456000000    -9.939000000     0.322000000
H    -0.592000000    -9.000000000     0.200000000
H    -0.776000000   -10.115000000     1.207000000
O    -6.480000000    -1.500000000     2.320000000
H    -6.205000000    -1.796000000     1.452000000
H    -5.775000000    -1.781000000     2.903000000
O    -4.117000000    -2.855000000     3.299000000
H    -4.060000000    -3.593000000     3.906000000
H    -3.391000000    -2.989000000     2.690000000
