215
-1447.32133
C    -3.570000000     1.713000000     4.079000000
H    -3.839000000     2.601000000     3.513000000
C    -2.218000000     1.318000000     4.364000000
C    -2.034000000     0.065000000     4.907000000
H    -1.024000000    -0.314000000     5.045000000
C    -1.007000000     2.027000000     3.723000000
O    -1.267000000     3.393000000     3.659000000
H    -0.904000000     1.596000000     2.716000000
O     0.110000000     1.792000000     4.639000000
C     1.301000000     1.639000000     3.990000000
C     1.892000000     0.409000000     3.963000000
H     1.209000000    -0.351000000     4.335000000
C     3.067000000     0.175000000     3.310000000
O     3.416000000    -1.118000000     3.118000000
C     3.761000000     1.222000000     2.735000000
C     5.106000000     0.989000000     1.996000000
H     5.855000000     1.783000000     1.977000000
C     4.942000000     0.577000000     0.542000000
C     4.784000000     1.545000000    -0.480000000
H     4.748000000     2.590000000    -0.181000000
H     5.670000000     0.295000000     2.622000000
C     3.273000000     2.565000000     2.783000000
H     3.949000000     3.350000000     2.456000000
C     2.047000000     2.799000000     3.464000000
C     1.554000000     4.157000000     3.616000000
H     2.365000000     4.889000000     3.615000000
H     1.145000000     4.330000000     4.614000000
C     0.595000000     4.396000000     2.478000000
C     0.978000000     4.881000000     1.203000000
H     2.037000000     5.077000000     1.053000000
C    -0.731000000     3.920000000     2.539000000
C    -1.599000000     3.979000000     1.411000000
H    -2.594000000     3.574000000     1.578000000
C    -1.202000000     4.496000000     0.178000000
O    -2.083000000     4.429000000    -0.908000000
C    -1.942000000     3.359000000    -1.844000000
C    -3.319000000     2.798000000    -2.139000000
C    -3.528000000     2.345000000    -3.438000000
H    -2.751000000     2.342000000    -4.198000000
C    -4.339000000     2.707000000    -1.168000000
H    -4.212000000     3.040000000    -0.140000000
O    -1.218000000     3.836000000    -2.979000000
H    -1.257000000     2.539000000    -1.581000000
C     0.153000000     4.883000000     0.036000000
C     0.660000000     5.315000000    -1.328000000
H     1.542000000     5.959000000    -1.288000000
H    -0.119000000     5.887000000    -1.836000000
C     1.071000000     4.201000000    -2.225000000
C     2.359000000     3.777000000    -2.302000000
H     3.032000000     4.293000000    -1.622000000
C     0.114000000     3.543000000    -2.968000000
C     0.459000000     2.487000000    -3.787000000
H    -0.346000000     1.973000000    -4.304000000
C     1.775000000     1.984000000    -3.714000000
O     2.109000000     0.774000000    -4.301000000
C     2.381000000    -0.395000000    -3.480000000
C     1.688000000    -1.628000000    -3.913000000
C     0.298000000    -1.554000000    -4.125000000
H    -0.258000000    -0.626000000    -4.018000000
C     2.332000000    -2.875000000    -4.037000000
H     3.397000000    -2.940000000    -3.829000000
O     3.882000000    -0.558000000    -3.264000000
H     1.955000000     0.012000000    -2.552000000
C     2.749000000     2.678000000    -2.980000000
C     4.239000000     2.207000000    -2.860000000
H     4.795000000     3.107000000    -2.590000000
H     4.717000000     1.896000000    -3.792000000
C     4.473000000     1.181000000    -1.786000000
C     4.393000000    -0.182000000    -2.066000000
C     4.517000000    -1.136000000    -1.102000000
H     4.512000000    -2.204000000    -1.302000000
C     4.766000000    -0.753000000     0.232000000
O     4.627000000    -1.717000000     1.218000000
C     3.323000000    -1.743000000     1.839000000
H     2.659000000    -1.114000000     1.228000000
C     2.751000000    -3.105000000     1.830000000
C     1.602000000    -3.421000000     2.632000000
H     1.314000000    -2.706000000     3.399000000
C     3.181000000    -4.012000000     0.906000000
H     3.977000000    -3.753000000     0.212000000
C     2.591000000    -5.297000000     0.872000000
O     3.259000000    -6.265000000     0.166000000
C     1.611000000    -5.675000000     1.778000000
H     1.255000000    -6.698000000     1.677000000
C     1.060000000    -4.715000000     2.651000000
O    -0.022000000    -5.002000000     3.477000000
C    -0.329000000    -4.249000000     4.630000000
C    -1.481000000    -3.412000000     4.606000000
H    -2.010000000    -3.315000000     3.662000000
C     0.320000000    -4.632000000     5.765000000
H     1.167000000    -5.306000000     5.659000000
C    -0.132000000    -4.099000000     6.966000000
H     0.356000000    -4.365000000     7.901000000
C    -1.205000000    -3.174000000     6.949000000
H    -1.522000000    -2.766000000     7.906000000
C    -1.887000000    -2.874000000     5.817000000
O    -2.972000000    -1.998000000     5.868000000
C    -3.101000000    -0.741000000     5.297000000
C    -4.376000000    -0.260000000     5.084000000
H    -5.214000000    -0.919000000     5.295000000
C    -4.642000000     0.913000000     4.438000000
O    -5.943000000     1.290000000     4.191000000
C    -6.318000000     1.958000000     3.034000000
C    -6.244000000     1.420000000     1.762000000
H    -5.849000000     0.419000000     1.614000000
C    -6.743000000     3.268000000     3.141000000
H    -6.834000000     3.636000000     4.160000000
C    -6.985000000     4.151000000     2.014000000
H    -7.288000000     5.177000000     2.206000000
C    -6.919000000     3.495000000     0.804000000
H    -7.074000000     4.043000000    -0.122000000
C    -6.580000000     2.158000000     0.690000000
O    -6.425000000     1.600000000    -0.568000000
C    -5.487000000     1.954000000    -1.470000000
C    -5.734000000     1.528000000    -2.736000000
H    -6.580000000     0.923000000    -3.053000000
C    -4.749000000     1.694000000    -3.724000000
O    -4.924000000     0.994000000    -4.912000000
C    -3.901000000     0.331000000    -5.465000000
C    -3.304000000    -0.789000000    -4.891000000
H    -3.657000000    -1.145000000    -3.927000000
C    -3.381000000     0.807000000    -6.646000000
H    -3.767000000     1.678000000    -7.169000000
C    -2.432000000     0.115000000    -7.307000000
H    -1.981000000     0.602000000    -8.168000000
C    -1.882000000    -1.053000000    -6.771000000
H    -0.985000000    -1.495000000    -7.196000000
C    -2.257000000    -1.482000000    -5.493000000
O    -1.696000000    -2.563000000    -4.906000000
C    -0.369000000    -2.695000000    -4.548000000
C     0.243000000    -3.920000000    -4.744000000
H    -0.369000000    -4.785000000    -4.988000000
C     1.619000000    -3.992000000    -4.495000000
O     2.318000000    -5.194000000    -4.466000000
C     3.150000000    -5.542000000    -3.466000000
C     4.366000000    -6.127000000    -3.853000000
H     4.634000000    -6.016000000    -4.901000000
C     5.181000000    -6.782000000    -2.909000000
H     6.126000000    -7.261000000    -3.151000000
C     4.714000000    -6.807000000    -1.570000000
H     5.262000000    -7.235000000    -0.735000000
C     3.566000000    -6.168000000    -1.145000000
C     2.718000000    -5.619000000    -2.132000000
H     1.787000000    -5.153000000    -1.817000000
C    -1.071000000    -2.173000000     0.255000000
H    -0.744000000    -3.198000000     0.095000000
C    -0.107000000    -1.153000000     0.079000000
H     0.907000000    -1.533000000    -0.016000000
C    -0.516000000     0.202000000     0.037000000
H     0.225000000     1.008000000    -0.132000000
C    -1.870000000     0.481000000     0.192000000
H    -2.180000000     1.522000000     0.142000000
C    -2.790000000    -0.547000000     0.532000000
H    -3.810000000    -0.314000000     0.826000000
C    -2.406000000    -1.852000000     0.469000000
C    -3.419000000    -2.968000000     0.591000000
O    -4.596000000    -2.623000000     0.692000000
O    -3.126000000    -4.172000000     0.484000000
O    -0.737000000    -7.250000000    -3.871000000
H    -1.171000000    -6.680000000    -3.237000000
H    -0.543000000    -8.049000000    -3.382000000
O    -8.772000000    -4.443000000     2.224000000
H    -9.088000000    -5.345000000     2.282000000
H    -7.820000000    -4.518000000     2.280000000
O    -4.043000000    -6.124000000    -1.038000000
H    -4.129000000    -6.806000000    -0.372000000
H    -3.783000000    -5.343000000    -0.549000000
O    -7.540000000    -6.195000000    -0.467000000
H    -7.981000000    -7.045000000    -0.447000000
H    -6.934000000    -6.222000000     0.274000000
O    -1.558000000    -5.520000000    -2.060000000
H    -1.280000000    -4.679000000    -1.696000000
H    -2.430000000    -5.663000000    -1.692000000
O    -5.700000000    -5.152000000     1.585000000
H    -5.226000000    -4.432000000     1.169000000
H    -5.509000000    -5.058000000     2.518000000
O    -5.910000000    -6.733000000    -2.951000000
H    -6.640000000    -6.509000000    -2.374000000
H    -5.149000000    -6.315000000    -2.549000000
O    -6.448000000    -3.809000000    -3.870000000
H    -5.603000000    -4.150000000    -4.162000000
H    -6.280000000    -3.475000000    -2.989000000
O    -5.781000000    -4.439000000     4.459000000
H    -4.835000000    -4.345000000     4.575000000
H    -6.128000000    -4.479000000     5.350000000
O    -8.987000000    -0.324000000     2.974000000
H    -9.506000000    -1.084000000     2.709000000
H    -8.081000000    -0.633000000     2.949000000
O    -6.572000000    -3.475000000    -1.024000000
H    -5.794000000    -3.108000000    -0.603000000
H    -6.515000000    -4.415000000    -0.854000000
O    -1.798000000    -6.478000000     1.329000000
H    -1.523000000    -6.008000000     2.116000000
H    -2.281000000    -5.827000000     0.819000000
O    -0.609000000    -8.748000000     0.457000000
H    -0.400000000    -9.333000000     1.186000000
H    -0.986000000    -7.973000000     0.873000000
O    -5.246000000    -8.313000000     3.415000000
H    -4.860000000    -7.509000000     3.761000000
H    -5.841000000    -8.609000000     4.105000000
O    -8.203000000    -1.450000000     0.188000000
H    -7.922000000    -2.102000000    -0.454000000
H    -7.610000000    -1.573000000     0.929000000
O    -8.702000000    -1.177000000    -3.299000000
H    -7.804000000    -1.419000000    -3.073000000
H    -8.863000000    -1.610000000    -4.137000000
O    -6.357000000    -2.028000000     2.707000000
H    -6.394000000    -2.889000000     3.123000000
H    -5.699000000    -2.123000000     2.019000000
O    -3.639000000    -6.522000000     4.781000000
H    -3.618000000    -6.688000000     5.723000000
H    -2.870000000    -6.978000000     4.439000000
O    -3.669000000    -8.320000000     0.677000000
H    -4.095000000    -8.819000000     1.373000000
H    -2.801000000    -8.115000000     1.025000000
