215
-1437.76730
C    -3.738000000     0.788000000     3.752000000
H    -4.010000000     1.603000000     3.086000000
C    -2.383000000     0.594000000     4.178000000
C    -2.114000000    -0.550000000     4.980000000
H    -1.150000000    -0.684000000     5.466000000
C    -1.277000000     1.600000000     3.750000000
O    -1.795000000     2.919000000     3.683000000
H    -0.969000000     1.403000000     2.712000000
O    -0.148000000     1.625000000     4.674000000
C     1.175000000     1.624000000     4.150000000
C     1.870000000     0.433000000     4.149000000
H     1.552000000    -0.511000000     4.585000000
C     3.165000000     0.449000000     3.561000000
O     3.784000000    -0.775000000     3.466000000
C     3.776000000     1.595000000     3.072000000
C     5.037000000     1.598000000     2.220000000
H     5.576000000     2.548000000     2.233000000
C     4.774000000     1.173000000     0.820000000
C     4.629000000     2.116000000    -0.211000000
H     4.655000000     3.179000000     0.015000000
H     5.709000000     0.908000000     2.734000000
C     3.062000000     2.786000000     3.148000000
H     3.499000000     3.723000000     2.815000000
C     1.716000000     2.744000000     3.591000000
C     0.884000000     4.083000000     3.629000000
H     1.667000000     4.839000000     3.549000000
H     0.287000000     4.177000000     4.539000000
C    -0.107000000     4.245000000     2.484000000
C     0.247000000     4.802000000     1.322000000
H     1.272000000     5.161000000     1.270000000
C    -1.408000000     3.730000000     2.644000000
C    -2.285000000     3.680000000     1.545000000
H    -3.301000000     3.310000000     1.653000000
C    -1.821000000     4.072000000     0.286000000
O    -2.727000000     3.906000000    -0.778000000
C    -2.312000000     3.085000000    -1.912000000
C    -3.540000000     2.308000000    -2.486000000
C    -3.533000000     1.810000000    -3.810000000
H    -2.625000000     1.879000000    -4.404000000
C    -4.526000000     1.961000000    -1.653000000
H    -4.440000000     2.226000000    -0.602000000
O    -1.499000000     3.807000000    -2.872000000
H    -1.693000000     2.306000000    -1.444000000
C    -0.573000000     4.776000000     0.208000000
C    -0.043000000     5.359000000    -1.062000000
H     0.599000000     6.186000000    -0.752000000
H    -0.820000000     5.893000000    -1.613000000
C     0.674000000     4.345000000    -1.949000000
C     2.080000000     4.182000000    -1.952000000
H     2.704000000     4.731000000    -1.252000000
C    -0.132000000     3.619000000    -2.866000000
C     0.375000000     2.581000000    -3.551000000
H    -0.215000000     1.900000000    -4.159000000
C     1.714000000     2.415000000    -3.587000000
O     2.149000000     1.292000000    -4.135000000
C     2.303000000     0.044000000    -3.338000000
C     1.660000000    -1.199000000    -3.949000000
C     0.719000000    -1.059000000    -4.970000000
H     0.488000000    -0.078000000    -5.376000000
C     2.016000000    -2.426000000    -3.491000000
H     2.716000000    -2.538000000    -2.667000000
O     3.724000000    -0.139000000    -3.010000000
H     1.910000000     0.155000000    -2.316000000
C     2.582000000     3.150000000    -2.731000000
C     4.045000000     2.787000000    -2.531000000
H     4.627000000     3.643000000    -2.183000000
H     4.547000000     2.419000000    -3.429000000
C     4.303000000     1.660000000    -1.514000000
C     4.185000000     0.302000000    -1.825000000
C     4.391000000    -0.599000000    -0.797000000
H     4.297000000    -1.645000000    -1.080000000
C     4.698000000    -0.192000000     0.523000000
O     4.766000000    -1.222000000     1.423000000
C     3.623000000    -1.517000000     2.207000000
H     2.773000000    -1.193000000     1.588000000
C     3.469000000    -2.955000000     2.386000000
C     2.469000000    -3.370000000     3.289000000
H     1.819000000    -2.690000000     3.833000000
C     3.960000000    -3.889000000     1.487000000
H     4.668000000    -3.626000000     0.705000000
C     3.543000000    -5.250000000     1.517000000
O     3.874000000    -6.167000000     0.548000000
C     2.595000000    -5.612000000     2.487000000
H     2.260000000    -6.641000000     2.588000000
C     2.012000000    -4.710000000     3.359000000
O     0.915000000    -5.129000000     4.155000000
C     0.324000000    -4.413000000     5.155000000
C    -1.039000000    -4.025000000     5.035000000
H    -1.640000000    -4.319000000     4.178000000
C     1.071000000    -4.068000000     6.258000000
H     2.088000000    -4.447000000     6.310000000
C     0.405000000    -3.417000000     7.373000000
H     0.990000000    -3.241000000     8.272000000
C    -0.907000000    -3.048000000     7.333000000
H    -1.421000000    -2.405000000     8.044000000
C    -1.552000000    -3.262000000     6.092000000
O    -2.833000000    -2.684000000     5.961000000
C    -3.085000000    -1.481000000     5.313000000
C    -4.399000000    -1.296000000     4.855000000
H    -5.132000000    -2.063000000     5.088000000
C    -4.758000000    -0.177000000     4.087000000
O    -5.992000000    -0.119000000     3.578000000
C    -6.412000000     0.710000000     2.602000000
C    -6.319000000     0.230000000     1.300000000
H    -5.864000000    -0.731000000     1.074000000
C    -6.955000000     1.928000000     2.870000000
H    -6.980000000     2.234000000     3.912000000
C    -7.298000000     2.766000000     1.786000000
H    -7.572000000     3.813000000     1.888000000
C    -7.157000000     2.334000000     0.503000000
H    -7.346000000     2.951000000    -0.371000000
C    -6.595000000     1.104000000     0.227000000
O    -6.550000000     0.760000000    -1.117000000
C    -5.644000000     1.241000000    -2.050000000
C    -5.639000000     0.771000000    -3.369000000
H    -6.464000000     0.150000000    -3.707000000
C    -4.575000000     1.043000000    -4.294000000
O    -4.574000000     0.482000000    -5.581000000
C    -3.505000000     0.338000000    -6.444000000
C    -2.516000000    -0.568000000    -6.057000000
H    -2.412000000    -0.814000000    -5.003000000
C    -3.512000000     0.857000000    -7.740000000
H    -4.216000000     1.639000000    -8.016000000
C    -2.418000000     0.540000000    -8.599000000
H    -2.297000000     1.019000000    -9.567000000
C    -1.549000000    -0.418000000    -8.212000000
H    -0.867000000    -0.740000000    -8.996000000
C    -1.534000000    -0.970000000    -6.971000000
O    -0.557000000    -2.013000000    -6.728000000
C     0.165000000    -2.149000000    -5.597000000
C     0.489000000    -3.434000000    -5.108000000
H     0.136000000    -4.281000000    -5.691000000
C     1.462000000    -3.573000000    -4.042000000
O     1.700000000    -4.854000000    -3.528000000
C     2.836000000    -5.205000000    -2.798000000
C     4.060000000    -4.930000000    -3.395000000
H     4.114000000    -4.488000000    -4.386000000
C     5.221000000    -5.233000000    -2.705000000
H     6.113000000    -5.098000000    -3.311000000
C     5.135000000    -5.619000000    -1.381000000
H     6.010000000    -5.853000000    -0.779000000
C     3.903000000    -5.839000000    -0.762000000
C     2.729000000    -5.674000000    -1.508000000
H     1.766000000    -5.801000000    -1.022000000
C    -0.222000000    -2.388000000     0.311000000
H     0.333000000    -3.321000000     0.246000000
C     0.424000000    -1.237000000    -0.018000000
H     1.417000000    -1.332000000    -0.449000000
C    -0.069000000     0.052000000     0.165000000
H     0.533000000     0.930000000     0.007000000
C    -1.397000000     0.081000000     0.588000000
H    -1.888000000     1.044000000     0.704000000
C    -2.068000000    -1.074000000     0.978000000
H    -3.111000000    -1.020000000     1.281000000
C    -1.473000000    -2.313000000     0.902000000
C    -2.225000000    -3.562000000     1.314000000
O    -3.278000000    -3.524000000     1.987000000
O    -1.792000000    -4.622000000     0.928000000
O    -1.942000000    -3.153000000    -2.487000000
H    -1.744000000    -3.951000000    -1.996000000
H    -1.208000000    -2.568000000    -2.300000000
O    -1.859000000    -6.179000000    -1.419000000
H    -1.726000000    -7.085000000    -1.142000000
H    -1.922000000    -5.685000000    -0.601000000
O    -2.308000000    -8.433000000     3.252000000
H    -2.015000000    -8.017000000     2.442000000
H    -1.863000000    -9.281000000     3.261000000
O    -1.474000000    -5.697000000    -4.200000000
H    -1.651000000    -6.054000000    -3.329000000
H    -1.642000000    -4.758000000    -4.112000000
O    -5.285000000    -3.590000000    -4.217000000
H    -4.832000000    -4.431000000    -4.278000000
H    -5.424000000    -3.326000000    -5.126000000
O    -8.156000000    -6.252000000    -0.653000000
H    -8.638000000    -5.503000000    -1.004000000
H    -7.362000000    -6.296000000    -1.186000000
O    -6.925000000    -5.720000000     5.038000000
H    -6.063000000    -5.522000000     4.670000000
H    -7.544000000    -5.428000000     4.368000000
O    -5.306000000    -6.573000000    -1.924000000
H    -4.551000000    -6.576000000    -1.336000000
H    -4.975000000    -6.943000000    -2.742000000
O    -5.878000000    -3.165000000    -1.519000000
H    -5.221000000    -2.909000000    -2.166000000
H    -6.144000000    -4.046000000    -1.783000000
O    -8.338000000    -1.654000000    -1.171000000
H    -8.670000000    -2.515000000    -0.916000000
H    -7.493000000    -1.836000000    -1.583000000
O    -8.132000000    -5.401000000     2.149000000
H    -7.228000000    -5.095000000     2.074000000
H    -8.294000000    -5.871000000     1.331000000
O    -5.764000000    -7.674000000     2.499000000
H    -5.294000000    -7.782000000     3.326000000
H    -5.100000000    -7.360000000     1.885000000
O    -7.446000000    -3.139000000     3.844000000
H    -6.836000000    -2.731000000     4.459000000
H    -7.061000000    -2.978000000     2.982000000
O    -4.174000000    -5.829000000     0.585000000
H    -4.689000000    -5.085000000     0.896000000
H    -3.291000000    -5.665000000     0.917000000
O    -0.547000000    -6.834000000     1.633000000
H    -0.297000000    -6.795000000     2.556000000
H    -0.824000000    -5.943000000     1.422000000
O    -5.921000000    -3.564000000     1.232000000
H    -5.914000000    -3.667000000     0.280000000
H    -5.016000000    -3.345000000     1.455000000
O    -4.365000000    -4.711000000     3.956000000
H    -4.004000000    -4.308000000     4.746000000
H    -3.795000000    -4.405000000     3.251000000
O    -3.586000000    -7.553000000     5.856000000
H    -3.317000000    -7.718000000     4.953000000
H    -3.155000000    -8.239000000     6.365000000
O    -1.101000000    -8.698000000    -0.294000000
H    -0.907000000    -8.199000000     0.500000000
H    -1.385000000    -9.555000000     0.026000000
