215
-1445.46181
C    -3.419000000     1.473000000     4.085000000
H    -3.663000000     2.407000000     3.585000000
C    -2.150000000     1.039000000     4.305000000
C    -1.883000000    -0.201000000     4.845000000
H    -0.879000000    -0.542000000     5.085000000
C    -0.955000000     1.833000000     3.871000000
O    -1.311000000     3.194000000     3.669000000
H    -0.497000000     1.424000000     2.958000000
O     0.185000000     1.819000000     4.772000000
C     1.411000000     1.715000000     4.176000000
C     1.937000000     0.397000000     4.156000000
H     1.259000000    -0.443000000     4.289000000
C     3.090000000     0.111000000     3.434000000
O     3.393000000    -1.238000000     3.249000000
C     3.808000000     1.178000000     2.932000000
C     5.093000000     0.869000000     2.137000000
H     5.727000000     1.742000000     2.305000000
C     4.824000000     0.603000000     0.672000000
C     4.700000000     1.647000000    -0.204000000
H     4.828000000     2.682000000     0.105000000
H     5.549000000     0.021000000     2.653000000
C     3.334000000     2.496000000     2.944000000
H     3.890000000     3.243000000     2.383000000
C     2.133000000     2.756000000     3.580000000
C     1.564000000     4.171000000     3.454000000
H     2.297000000     4.973000000     3.343000000
H     1.111000000     4.434000000     4.412000000
C     0.458000000     4.324000000     2.399000000
C     0.841000000     4.899000000     1.183000000
H     1.843000000     5.308000000     1.077000000
C    -0.857000000     3.844000000     2.591000000
C    -1.721000000     3.946000000     1.474000000
H    -2.733000000     3.567000000     1.590000000
C    -1.298000000     4.485000000     0.243000000
O    -2.177000000     4.270000000    -0.769000000
C    -1.887000000     3.315000000    -1.763000000
C    -3.071000000     2.453000000    -2.130000000
C    -3.401000000     2.156000000    -3.457000000
H    -2.846000000     2.599000000    -4.280000000
C    -3.781000000     1.850000000    -1.138000000
H    -3.555000000     2.056000000    -0.095000000
O    -1.228000000     3.941000000    -2.886000000
H    -1.158000000     2.560000000    -1.431000000
C     0.020000000     5.002000000     0.081000000
C     0.470000000     5.545000000    -1.232000000
H     1.254000000     6.300000000    -1.142000000
H    -0.377000000     6.090000000    -1.653000000
C     1.035000000     4.455000000    -2.163000000
C     2.360000000     4.059000000    -2.003000000
H     3.012000000     4.488000000    -1.246000000
C     0.128000000     3.784000000    -2.986000000
C     0.651000000     2.839000000    -3.830000000
H    -0.052000000     2.414000000    -4.542000000
C     1.957000000     2.428000000    -3.757000000
O     2.308000000     1.238000000    -4.335000000
C     2.410000000     0.155000000    -3.424000000
C     1.570000000    -1.019000000    -3.996000000
C     0.544000000    -0.826000000    -4.935000000
H     0.200000000     0.161000000    -5.237000000
C     1.886000000    -2.288000000    -3.611000000
H     2.776000000    -2.543000000    -3.042000000
O     3.740000000    -0.290000000    -3.249000000
H     1.846000000     0.356000000    -2.501000000
C     2.772000000     3.022000000    -2.740000000
C     4.186000000     2.543000000    -2.495000000
H     4.746000000     3.457000000    -2.286000000
H     4.456000000     2.156000000    -3.480000000
C     4.350000000     1.374000000    -1.541000000
C     4.238000000    -0.045000000    -2.001000000
C     4.365000000    -1.046000000    -1.026000000
H     4.224000000    -2.070000000    -1.363000000
C     4.578000000    -0.700000000     0.308000000
O     4.555000000    -1.665000000     1.268000000
C     3.280000000    -1.776000000     1.937000000
H     2.577000000    -1.120000000     1.403000000
C     2.758000000    -3.223000000     1.983000000
C     1.829000000    -3.670000000     2.967000000
H     1.508000000    -2.978000000     3.741000000
C     3.259000000    -4.260000000     1.106000000
H     4.079000000    -3.996000000     0.443000000
C     2.679000000    -5.500000000     1.128000000
O     3.216000000    -6.494000000     0.290000000
C     1.642000000    -5.864000000     2.038000000
H     1.193000000    -6.852000000     1.975000000
C     1.250000000    -4.918000000     3.016000000
O     0.167000000    -5.162000000     3.903000000
C    -0.150000000    -4.529000000     5.015000000
C    -1.246000000    -3.678000000     4.970000000
H    -1.651000000    -3.540000000     3.970000000
C     0.534000000    -4.757000000     6.212000000
H     1.373000000    -5.447000000     6.267000000
C     0.150000000    -4.066000000     7.389000000
H     0.659000000    -4.337000000     8.310000000
C    -0.925000000    -3.143000000     7.300000000
H    -1.182000000    -2.582000000     8.195000000
C    -1.617000000    -2.946000000     6.127000000
O    -2.747000000    -2.126000000     5.953000000
C    -2.961000000    -1.026000000     5.092000000
C    -4.293000000    -0.604000000     4.889000000
H    -5.066000000    -1.345000000     5.075000000
C    -4.504000000     0.726000000     4.418000000
O    -5.804000000     1.163000000     4.229000000
C    -6.291000000     1.452000000     2.962000000
C    -5.769000000     0.874000000     1.790000000
H    -4.892000000     0.248000000     1.937000000
C    -7.334000000     2.345000000     2.807000000
H    -7.820000000     2.759000000     3.687000000
C    -7.880000000     2.686000000     1.529000000
H    -8.642000000     3.461000000     1.546000000
C    -7.312000000     2.015000000     0.383000000
H    -7.724000000     2.234000000    -0.599000000
C    -6.220000000     1.097000000     0.525000000
O    -5.620000000     0.418000000    -0.493000000
C    -4.913000000     1.063000000    -1.476000000
C    -5.209000000     0.770000000    -2.798000000
H    -6.016000000     0.088000000    -3.052000000
C    -4.496000000     1.359000000    -3.755000000
O    -4.756000000     0.976000000    -5.058000000
C    -3.831000000     0.620000000    -5.983000000
C    -3.007000000    -0.472000000    -5.722000000
H    -3.168000000    -1.148000000    -4.886000000
C    -3.412000000     1.532000000    -6.984000000
H    -3.969000000     2.465000000    -7.027000000
C    -2.321000000     1.159000000    -7.822000000
H    -2.134000000     1.732000000    -8.727000000
C    -1.552000000     0.059000000    -7.546000000
H    -0.797000000    -0.218000000    -8.277000000
C    -1.831000000    -0.709000000    -6.432000000
O    -1.217000000    -1.878000000    -6.226000000
C    -0.182000000    -1.917000000    -5.353000000
C     0.044000000    -3.167000000    -4.915000000
H    -0.588000000    -4.007000000    -5.193000000
C     1.182000000    -3.385000000    -4.117000000
O     1.489000000    -4.667000000    -3.810000000
C     2.540000000    -5.246000000    -3.160000000
C     3.624000000    -5.710000000    -3.825000000
H     3.635000000    -5.652000000    -4.911000000
C     4.607000000    -6.362000000    -3.156000000
H     5.449000000    -6.842000000    -3.648000000
C     4.545000000    -6.641000000    -1.772000000
H     5.376000000    -7.186000000    -1.332000000
C     3.388000000    -6.198000000    -1.080000000
C     2.445000000    -5.526000000    -1.793000000
H     1.563000000    -5.166000000    -1.270000000
C    -0.285000000    -2.729000000    -0.288000000
H    -0.142000000    -3.475000000    -1.066000000
C     0.335000000    -1.542000000    -0.418000000
H     1.044000000    -1.461000000    -1.238000000
C     0.046000000    -0.413000000     0.342000000
H     0.538000000     0.513000000     0.147000000
C    -1.041000000    -0.548000000     1.207000000
H    -1.335000000     0.361000000     1.724000000
C    -1.698000000    -1.740000000     1.402000000
H    -2.502000000    -1.847000000     2.126000000
C    -1.221000000    -2.902000000     0.696000000
C    -1.877000000    -4.242000000     0.863000000
O    -2.926000000    -4.301000000     1.471000000
O    -1.555000000    -5.196000000     0.178000000
O    -2.030000000    -0.744000000    -2.447000000
H    -1.268000000    -0.969000000    -2.980000000
H    -1.703000000    -0.752000000    -1.547000000
O    -2.799000000    -8.442000000    -2.682000000
H    -2.210000000    -8.408000000    -1.928000000
H    -3.622000000    -8.779000000    -2.327000000
O     0.233000000    -9.329000000    -2.427000000
H     0.697000000    -8.600000000    -2.837000000
H    -0.335000000    -8.917000000    -1.777000000
O    -3.982000000    -6.200000000     6.081000000
H    -4.058000000    -5.451000000     5.490000000
H    -4.502000000    -5.955000000     6.846000000
O    -0.776000000    -7.524000000    -0.818000000
H    -0.707000000    -8.125000000    -0.076000000
H    -0.971000000    -6.675000000    -0.421000000
O    -7.043000000    -4.144000000     0.504000000
H    -6.287000000    -3.612000000     0.753000000
H    -7.753000000    -3.827000000     1.062000000
O    -1.440000000    -4.754000000    -2.780000000
H    -1.740000000    -4.901000000    -1.884000000
H    -0.601000000    -5.212000000    -2.830000000
O    -3.178000000    -4.206000000    -4.742000000
H    -3.103000000    -5.136000000    -4.957000000
H    -2.654000000    -4.101000000    -3.948000000
O    -7.063000000    -5.171000000    -2.713000000
H    -6.636000000    -5.214000000    -1.857000000
H    -6.800000000    -4.323000000    -3.069000000
O    -7.415000000    -4.494000000     3.840000000
H    -7.613000000    -5.427000000     3.918000000
H    -6.459000000    -4.453000000     3.810000000
O    -4.204000000    -6.462000000    -0.116000000
H    -3.636000000    -5.727000000     0.113000000
H    -3.902000000    -6.737000000    -0.982000000
O    -4.699000000    -2.325000000    -1.850000000
H    -3.870000000    -2.198000000    -2.311000000
H    -5.369000000    -2.212000000    -2.524000000
O    -4.732000000    -4.449000000     3.343000000
H    -4.438000000    -3.714000000     3.880000000
H    -4.367000000    -4.273000000     2.476000000
O    -6.932000000    -6.753000000     0.313000000
H    -7.040000000    -5.820000000     0.496000000
H    -6.003000000    -6.852000000     0.107000000
O    -2.570000000    -7.111000000     2.284000000
H    -2.338000000    -6.244000000     1.951000000
H    -3.407000000    -7.312000000     1.865000000
O    -5.851000000    -9.290000000     1.435000000
H    -6.615000000    -8.714000000     1.465000000
H    -5.169000000    -8.809000000     1.903000000
O    -4.870000000    -2.491000000     1.161000000
H    -4.761000000    -2.032000000     0.328000000
H    -4.100000000    -3.057000000     1.225000000
O    -5.541000000    -7.086000000     3.097000000
H    -6.362000000    -6.650000000     2.873000000
H    -4.990000000    -6.390000000     3.456000000
O    -0.365000000    -8.760000000     1.702000000
H    -1.125000000    -8.242000000     1.967000000
H    -0.403000000    -9.541000000     2.255000000
