215
-1450.54940
C    -2.355000000    -3.198000000    -3.103000000
H    -2.464000000    -2.590000000    -3.998000000
C    -2.938000000    -2.724000000    -1.938000000
C    -2.774000000    -3.359000000    -0.682000000
H    -2.991000000    -2.803000000     0.226000000
C    -3.418000000    -1.246000000    -1.929000000
O    -3.605000000    -0.685000000    -3.285000000
H    -2.693000000    -0.675000000    -1.331000000
O    -4.647000000    -1.191000000    -1.172000000
C    -4.726000000    -0.055000000    -0.374000000
C    -4.667000000    -0.369000000     0.949000000
H    -4.893000000    -1.376000000     1.291000000
C    -4.449000000     0.694000000     1.882000000
O    -4.138000000     0.327000000     3.173000000
C    -4.322000000     2.054000000     1.473000000
C    -4.020000000     3.173000000     2.353000000
H    -4.503000000     4.088000000     2.004000000
C    -2.574000000     3.372000000     2.631000000
C    -1.960000000     4.342000000     1.794000000
H    -2.462000000     4.929000000     1.029000000
H    -4.472000000     2.935000000     3.319000000
C    -4.494000000     2.321000000     0.104000000
H    -4.587000000     3.378000000    -0.132000000
C    -4.753000000     1.289000000    -0.793000000
C    -4.800000000     1.682000000    -2.272000000
H    -5.293000000     2.656000000    -2.290000000
H    -5.498000000     0.972000000    -2.721000000
C    -3.407000000     1.685000000    -2.864000000
C    -2.773000000     2.865000000    -3.180000000
H    -3.256000000     3.767000000    -2.812000000
C    -2.944000000     0.522000000    -3.522000000
C    -1.708000000     0.487000000    -4.196000000
H    -1.401000000    -0.432000000    -4.688000000
C    -0.956000000     1.676000000    -4.253000000
O     0.286000000     1.605000000    -4.871000000
C     1.515000000     1.495000000    -4.038000000
C     2.505000000     0.439000000    -4.573000000
C     3.723000000     0.478000000    -3.996000000
H     4.015000000     1.285000000    -3.329000000
C     2.111000000    -0.619000000    -5.391000000
H     1.120000000    -0.589000000    -5.835000000
O     2.106000000     2.736000000    -3.734000000
H     1.110000000     1.063000000    -3.112000000
C    -1.507000000     2.828000000    -3.778000000
C    -0.731000000     4.092000000    -3.825000000
H    -1.424000000     4.936000000    -3.821000000
H    -0.209000000     4.158000000    -4.782000000
C     0.333000000     4.161000000    -2.716000000
C    -0.059000000     4.790000000    -1.515000000
H    -1.002000000     5.325000000    -1.437000000
C     1.566000000     3.426000000    -2.707000000
C     2.300000000     3.364000000    -1.542000000
H     3.291000000     2.918000000    -1.548000000
C     1.931000000     4.089000000    -0.352000000
O     2.743000000     3.971000000     0.788000000
C     2.261000000     2.983000000     1.708000000
C     3.303000000     2.093000000     2.293000000
C     4.079000000     1.418000000     1.422000000
H     3.864000000     1.515000000     0.361000000
C     3.499000000     1.888000000     3.644000000
H     2.780000000     2.357000000     4.310000000
O     1.594000000     3.804000000     2.757000000
H     1.547000000     2.360000000     1.149000000
C     0.651000000     4.733000000    -0.315000000
C     0.144000000     5.440000000     0.915000000
H    -0.497000000     6.277000000     0.628000000
H     0.959000000     5.960000000     1.421000000
C    -0.556000000     4.509000000     1.872000000
C     0.223000000     3.716000000     2.781000000
C    -0.382000000     2.808000000     3.629000000
H     0.265000000     2.080000000     4.112000000
C    -1.812000000     2.585000000     3.519000000
O    -2.348000000     1.610000000     4.295000000
C    -2.713000000     0.362000000     3.596000000
H    -2.071000000     0.378000000     2.703000000
C    -2.304000000    -0.846000000     4.416000000
C    -2.998000000    -1.999000000     4.429000000
H    -3.980000000    -2.042000000     3.965000000
C    -1.047000000    -0.831000000     5.087000000
H    -0.550000000     0.134000000     5.140000000
C    -0.489000000    -1.978000000     5.679000000
O     0.751000000    -2.062000000     6.286000000
C    -1.274000000    -3.113000000     5.625000000
H    -0.913000000    -4.048000000     6.045000000
C    -2.542000000    -3.114000000     5.063000000
O    -3.171000000    -4.337000000     4.909000000
C    -3.560000000    -4.805000000     3.706000000
C    -2.658000000    -4.745000000     2.670000000
H    -1.654000000    -4.374000000     2.859000000
C    -4.831000000    -5.340000000     3.498000000
H    -5.582000000    -5.452000000     4.276000000
C    -5.154000000    -5.911000000     2.260000000
H    -6.123000000    -6.385000000     2.119000000
C    -4.269000000    -5.816000000     1.206000000
H    -4.477000000    -6.184000000     0.205000000
C    -2.974000000    -5.322000000     1.440000000
O    -1.979000000    -5.363000000     0.498000000
C    -2.204000000    -4.646000000    -0.682000000
C    -1.636000000    -5.149000000    -1.859000000
H    -0.965000000    -6.003000000    -1.805000000
C    -1.706000000    -4.412000000    -3.022000000
O    -1.046000000    -4.969000000    -4.113000000
C    -0.577000000    -4.302000000    -5.197000000
C     0.721000000    -3.786000000    -5.146000000
H     1.255000000    -3.908000000    -4.207000000
C    -1.364000000    -4.204000000    -6.338000000
H    -2.296000000    -4.754000000    -6.442000000
C    -0.815000000    -3.666000000    -7.482000000
H    -1.460000000    -3.631000000    -8.357000000
C     0.467000000    -3.093000000    -7.389000000
H     0.925000000    -2.590000000    -8.237000000
C     1.295000000    -3.225000000    -6.245000000
O     2.600000000    -2.775000000    -6.306000000
C     2.958000000    -1.664000000    -5.639000000
C     4.268000000    -1.606000000    -5.197000000
H     4.848000000    -2.493000000    -5.442000000
C     4.672000000    -0.526000000    -4.426000000
O     6.029000000    -0.450000000    -3.959000000
C     6.318000000     0.198000000    -2.804000000
C     5.935000000    -0.323000000    -1.541000000
H     5.240000000    -1.158000000    -1.500000000
C     7.154000000     1.322000000    -2.802000000
H     7.555000000     1.592000000    -3.775000000
C     7.492000000     1.965000000    -1.642000000
H     8.059000000     2.892000000    -1.670000000
C     7.139000000     1.436000000    -0.410000000
H     7.527000000     1.818000000     0.530000000
C     6.267000000     0.411000000    -0.356000000
O     5.952000000    -0.038000000     0.888000000
C     5.181000000     0.655000000     1.814000000
C     5.383000000     0.370000000     3.170000000
H     6.218000000    -0.238000000     3.508000000
C     4.474000000     0.933000000     4.100000000
O     4.705000000     0.558000000     5.410000000
C     3.664000000     0.206000000     6.174000000
C     3.533000000     0.873000000     7.384000000
H     4.293000000     1.589000000     7.686000000
C     2.445000000     0.508000000     8.210000000
H     2.212000000     0.933000000     9.183000000
C     1.488000000    -0.445000000     7.782000000
H     0.746000000    -0.750000000     8.516000000
C     1.657000000    -1.045000000     6.508000000
C     2.740000000    -0.709000000     5.683000000
H     2.867000000    -1.138000000     4.692000000
C     0.950000000    -1.582000000     1.558000000
H     1.124000000    -1.714000000     2.623000000
C     0.260000000    -0.416000000     1.232000000
H     0.111000000     0.356000000     1.984000000
C    -0.174000000    -0.125000000    -0.005000000
H    -0.483000000     0.932000000    -0.278000000
C     0.149000000    -1.091000000    -1.006000000
H    -0.073000000    -0.873000000    -2.048000000
C     0.724000000    -2.281000000    -0.729000000
H     1.010000000    -3.011000000    -1.482000000
C     1.099000000    -2.568000000     0.630000000
C     1.757000000    -3.861000000     0.966000000
O     2.012000000    -4.672000000     0.064000000
O     2.176000000    -4.030000000     2.065000000
O     6.791000000    -3.061000000     4.522000000
H     7.419000000    -3.513000000     3.959000000
H     5.941000000    -3.222000000     4.110000000
O     2.205000000    -4.700000000     7.205000000
H     1.517000000    -4.739000000     7.869000000
H     1.752000000    -4.877000000     6.380000000
O     4.449000000    -7.710000000     3.533000000
H     4.232000000    -7.159000000     2.781000000
H     3.635000000    -7.764000000     4.034000000
O     1.508000000    -7.416000000     0.839000000
H     1.475000000    -6.477000000     1.021000000
H     1.867000000    -7.476000000    -0.047000000
O     5.291000000    -7.442000000    -0.909000000
H     5.246000000    -6.501000000    -0.737000000
H     5.260000000    -7.846000000    -0.042000000
O     2.528000000    -9.852000000     1.303000000
H     1.937000000   -10.456000000     0.854000000
H     2.030000000    -9.037000000     1.373000000
O    -0.623000000    -8.574000000     1.938000000
H    -0.825000000    -7.993000000     2.671000000
H     0.102000000    -8.143000000     1.484000000
O     6.106000000    -3.399000000     0.599000000
H     6.064000000    -3.378000000    -0.357000000
H     7.036000000    -3.294000000     0.800000000
O    -0.808000000    -6.675000000     5.545000000
H    -1.267000000    -6.421000000     6.346000000
H    -1.506000000    -6.862000000     4.918000000
O     6.950000000    -5.715000000     3.246000000
H     6.871000000    -5.875000000     4.187000000
H     6.088000000    -5.935000000     2.893000000
O     4.676000000    -5.789000000     1.568000000
H     5.330000000    -5.159000000     1.266000000
H     3.853000000    -5.300000000     1.567000000
O     5.539000000    -3.928000000    -2.962000000
H     4.724000000    -4.388000000    -2.762000000
H     5.690000000    -4.102000000    -3.891000000
O     1.007000000    -6.751000000    -3.547000000
H     0.114000000    -6.482000000    -3.762000000
H     1.302000000    -7.239000000    -4.315000000
O     1.551000000    -5.439000000     4.148000000
H     0.647000000    -5.750000000     4.097000000
H     1.727000000    -5.071000000     3.282000000
O     1.008000000    -8.983000000    -1.723000000
H     0.170000000    -9.375000000    -1.479000000
H     0.789000000    -8.365000000    -2.421000000
O     2.398000000    -7.883000000     5.206000000
H     2.663000000    -7.838000000     6.125000000
H     2.075000000    -7.004000000     5.007000000
O     3.169000000    -5.083000000    -2.182000000
H     2.597000000    -5.804000000    -2.446000000
H     2.778000000    -4.752000000    -1.373000000
O     4.263000000    -3.821000000     5.611000000
H     3.426000000    -4.015000000     6.033000000
H     4.024000000    -3.496000000     4.743000000
O     4.502000000    -3.000000000     2.885000000
H     4.915000000    -3.226000000     2.051000000
H     3.573000000    -3.187000000     2.750000000
