215
-1454.30876
C    -3.404000000     0.304000000     3.659000000
H    -3.580000000     1.199000000     3.066000000
C    -2.081000000     0.096000000     4.120000000
C    -1.758000000    -1.118000000     4.662000000
H    -0.781000000    -1.409000000     5.038000000
C    -1.018000000     1.210000000     3.922000000
O    -1.538000000     2.564000000     4.153000000
H    -0.699000000     1.045000000     2.882000000
O     0.082000000     0.974000000     4.839000000
C     1.322000000     0.924000000     4.243000000
C     2.016000000    -0.275000000     3.989000000
H     1.487000000    -1.140000000     4.381000000
C     3.255000000    -0.267000000     3.331000000
O     3.770000000    -1.437000000     2.920000000
C     3.848000000     0.969000000     2.931000000
C     5.059000000     1.033000000     2.024000000
H     5.529000000     2.009000000     2.161000000
C     4.805000000     0.794000000     0.519000000
C     4.654000000     1.938000000    -0.313000000
H     4.902000000     2.946000000     0.012000000
H     5.781000000     0.312000000     2.412000000
C     3.235000000     2.146000000     3.302000000
H     3.729000000     3.080000000     3.048000000
C     2.002000000     2.115000000     3.942000000
C     1.396000000     3.419000000     4.162000000
H     2.082000000     4.251000000     4.335000000
H     0.824000000     3.432000000     5.092000000
C     0.306000000     3.713000000     3.065000000
C     0.670000000     4.510000000     1.980000000
H     1.643000000     4.988000000     2.057000000
C    -1.096000000     3.407000000     3.217000000
C    -1.919000000     3.645000000     2.154000000
H    -2.969000000     3.368000000     2.097000000
C    -1.525000000     4.286000000     0.991000000
O    -2.408000000     4.375000000    -0.073000000
C    -2.256000000     3.440000000    -1.122000000
C    -3.597000000     2.853000000    -1.508000000
C    -3.759000000     2.120000000    -2.723000000
H    -2.875000000     1.999000000    -3.344000000
C    -4.684000000     2.936000000    -0.648000000
H    -4.579000000     3.480000000     0.287000000
O    -1.519000000     4.066000000    -2.212000000
H    -1.705000000     2.554000000    -0.776000000
C    -0.219000000     4.714000000     0.932000000
C     0.264000000     5.486000000    -0.294000000
H     1.065000000     6.157000000     0.023000000
H    -0.572000000     6.112000000    -0.611000000
C     0.711000000     4.632000000    -1.495000000
C     2.061000000     4.250000000    -1.643000000
H     2.793000000     4.756000000    -1.019000000
C    -0.207000000     3.885000000    -2.232000000
C     0.198000000     2.977000000    -3.127000000
H    -0.536000000     2.399000000    -3.682000000
C     1.544000000     2.688000000    -3.336000000
O     1.891000000     1.742000000    -4.205000000
C     2.100000000     0.483000000    -3.595000000
C     1.403000000    -0.717000000    -4.239000000
C     0.170000000    -0.595000000    -4.873000000
H    -0.274000000     0.397000000    -4.912000000
C     1.958000000    -2.012000000    -4.225000000
H     2.974000000    -2.158000000    -3.866000000
O     3.475000000     0.173000000    -3.365000000
H     1.636000000     0.476000000    -2.598000000
C     2.496000000     3.320000000    -2.569000000
C     3.981000000     2.905000000    -2.619000000
H     4.468000000     3.835000000    -2.319000000
H     4.347000000     2.595000000    -3.600000000
C     4.301000000     1.745000000    -1.670000000
C     4.089000000     0.422000000    -2.124000000
C     4.367000000    -0.659000000    -1.366000000
H     4.199000000    -1.642000000    -1.799000000
C     4.690000000    -0.472000000     0.001000000
O     4.771000000    -1.553000000     0.755000000
C     3.576000000    -1.713000000     1.510000000
H     2.713000000    -1.195000000     1.067000000
C     3.105000000    -3.116000000     1.339000000
C     2.167000000    -3.683000000     2.144000000
H     1.642000000    -3.037000000     2.843000000
C     3.640000000    -3.958000000     0.333000000
H     4.428000000    -3.562000000    -0.303000000
C     3.300000000    -5.298000000     0.110000000
O     3.919000000    -6.014000000    -0.901000000
C     2.332000000    -5.857000000     0.920000000
H     1.959000000    -6.875000000     0.831000000
C     1.756000000    -4.993000000     1.873000000
O     0.753000000    -5.559000000     2.665000000
C     0.320000000    -5.056000000     3.868000000
C    -0.826000000    -4.282000000     4.078000000
H    -1.468000000    -3.998000000     3.248000000
C     1.117000000    -5.438000000     4.992000000
H     1.956000000    -6.108000000     4.823000000
C     0.752000000    -4.978000000     6.261000000
H     1.390000000    -5.237000000     7.101000000
C    -0.428000000    -4.292000000     6.467000000
H    -0.712000000    -3.930000000     7.452000000
C    -1.141000000    -3.906000000     5.343000000
O    -2.409000000    -3.297000000     5.412000000
C    -2.728000000    -2.065000000     4.931000000
C    -4.028000000    -1.837000000     4.461000000
H    -4.708000000    -2.679000000     4.558000000
C    -4.411000000    -0.635000000     3.917000000
O    -5.643000000    -0.522000000     3.257000000
C    -6.276000000     0.657000000     2.973000000
C    -6.456000000     0.964000000     1.687000000
H    -6.345000000     0.165000000     0.958000000
C    -6.421000000     1.600000000     3.953000000
H    -6.191000000     1.275000000     4.965000000
C    -6.748000000     2.945000000     3.591000000
H    -6.868000000     3.710000000     4.355000000
C    -7.026000000     3.225000000     2.270000000
H    -7.278000000     4.253000000     2.023000000
C    -6.840000000     2.246000000     1.271000000
O    -7.021000000     2.441000000    -0.069000000
C    -5.943000000     2.354000000    -0.948000000
C    -6.069000000     1.633000000    -2.118000000
H    -6.991000000     1.137000000    -2.408000000
C    -5.000000000     1.572000000    -3.014000000
O    -5.144000000     0.711000000    -3.976000000
C    -4.260000000     0.657000000    -5.019000000
C    -3.298000000    -0.396000000    -5.088000000
H    -3.227000000    -1.213000000    -4.374000000
C    -4.215000000     1.737000000    -5.979000000
H    -4.931000000     2.552000000    -5.904000000
C    -3.230000000     1.722000000    -7.028000000
H    -3.288000000     2.417000000    -7.862000000
C    -2.386000000     0.585000000    -7.101000000
H    -1.726000000     0.475000000    -7.957000000
C    -2.432000000    -0.397000000    -6.147000000
O    -1.565000000    -1.517000000    -6.295000000
C    -0.424000000    -1.632000000    -5.553000000
C     0.189000000    -2.913000000    -5.512000000
H    -0.275000000    -3.729000000    -6.060000000
C     1.446000000    -3.067000000    -4.898000000
O     2.119000000    -4.269000000    -4.990000000
C     3.246000000    -4.712000000    -4.274000000
C     4.407000000    -4.872000000    -4.918000000
H     4.607000000    -4.514000000    -5.925000000
C     5.497000000    -5.252000000    -4.220000000
H     6.490000000    -5.263000000    -4.662000000
C     5.341000000    -5.654000000    -2.891000000
H     6.253000000    -5.950000000    -2.379000000
C     4.102000000    -5.598000000    -2.212000000
C     3.060000000    -5.099000000    -2.940000000
H     2.053000000    -5.031000000    -2.538000000
C     0.087000000    -2.888000000    -0.675000000
H     0.558000000    -3.692000000    -1.235000000
C     0.671000000    -1.639000000    -0.619000000
H     1.660000000    -1.446000000    -1.027000000
C     0.052000000    -0.618000000     0.038000000
H     0.478000000     0.360000000     0.136000000
C    -1.153000000    -0.799000000     0.742000000
H    -1.591000000     0.046000000     1.266000000
C    -1.740000000    -2.035000000     0.722000000
H    -2.687000000    -2.140000000     1.246000000
C    -1.097000000    -3.055000000     0.034000000
C    -1.684000000    -4.410000000     0.041000000
O    -2.866000000    -4.577000000     0.420000000
O    -1.107000000    -5.346000000    -0.417000000
O    -2.121000000    -2.782000000    -2.710000000
H    -1.575000000    -3.529000000    -2.954000000
H    -1.563000000    -2.252000000    -2.141000000
O    -7.010000000    -7.035000000    -0.565000000
H    -6.522000000    -6.282000000    -0.234000000
H    -6.956000000    -6.956000000    -1.517000000
O    -3.803000000    -5.668000000    -4.496000000
H    -4.005000000    -5.121000000    -3.737000000
H    -2.848000000    -5.640000000    -4.564000000
O     1.943000000    -9.576000000     0.814000000
H     2.230000000    -9.875000000     1.677000000
H     1.198000000    -9.004000000     0.993000000
O    -2.555000000    -9.879000000    -0.544000000
H    -1.606000000    -9.973000000    -0.622000000
H    -2.724000000    -8.963000000    -0.766000000
O     1.033000000    -7.519000000    -2.992000000
H     0.527000000    -8.291000000    -3.244000000
H     1.928000000    -7.719000000    -3.267000000
O    -0.943000000    -8.434000000     2.124000000
H    -0.852000000    -8.111000000     1.227000000
H    -1.676000000    -7.936000000     2.485000000
O    -1.362000000    -5.818000000    -3.047000000
H    -0.608000000    -6.390000000    -3.190000000
H    -1.346000000    -5.630000000    -2.108000000
O    -3.329000000    -7.264000000    -0.660000000
H    -2.606000000    -6.644000000    -0.750000000
H    -3.783000000    -6.989000000     0.136000000
O    -3.706000000    -8.138000000    -3.150000000
H    -3.717000000    -7.725000000    -2.286000000
H    -3.489000000    -7.426000000    -3.752000000
O    -6.539000000    -4.280000000     0.020000000
H    -7.098000000    -3.866000000    -0.637000000
H    -5.649000000    -4.151000000    -0.307000000
O    -5.734000000    -7.451000000     1.853000000
H    -6.077000000    -8.227000000     1.410000000
H    -6.507000000    -7.027000000     2.226000000
O    -0.253000000    -7.843000000    -0.428000000
H     0.322000000    -7.854000000    -1.193000000
H    -0.479000000    -6.920000000    -0.312000000
O    -4.242000000    -4.165000000    -1.727000000
H    -3.680000000    -3.497000000    -2.118000000
H    -3.805000000    -4.395000000    -0.907000000
O    -0.801000000    -9.382000000    -3.607000000
H    -0.509000000   -10.068000000    -3.006000000
H    -1.757000000    -9.401000000    -3.545000000
O    -3.117000000    -6.696000000     2.395000000
H    -3.034000000    -5.873000000     1.913000000
H    -4.031000000    -6.953000000     2.275000000
O    -3.771000000    -7.378000000     5.104000000
H    -4.549000000    -6.901000000     5.395000000
H    -3.433000000    -6.860000000     4.373000000
O    -5.441000000    -4.392000000     2.683000000
H    -6.273000000    -4.414000000     2.210000000
H    -4.844000000    -3.929000000     2.095000000
O    -5.553000000    -5.073000000     5.288000000
H    -5.467000000    -4.829000000     4.366000000
H    -6.456000000    -5.378000000     5.372000000
