215
-1449.92545
C    -3.634000000    -0.247000000     3.588000000
H    -3.936000000     0.666000000     3.081000000
C    -2.265000000    -0.299000000     4.017000000
C    -1.836000000    -1.439000000     4.672000000
H    -0.795000000    -1.576000000     4.950000000
C    -1.230000000     0.809000000     3.709000000
O    -1.904000000     2.093000000     3.830000000
H    -0.758000000     0.730000000     2.718000000
O    -0.175000000     0.784000000     4.684000000
C     1.116000000     0.968000000     4.285000000
C     1.943000000    -0.118000000     3.954000000
H     1.693000000    -1.138000000     4.235000000
C     3.233000000     0.031000000     3.421000000
O     3.927000000    -1.156000000     2.991000000
C     3.611000000     1.307000000     3.008000000
C     4.856000000     1.637000000     2.228000000
H     5.090000000     2.680000000     2.448000000
C     4.666000000     1.387000000     0.755000000
C     4.538000000     2.470000000    -0.155000000
H     4.586000000     3.488000000     0.222000000
H     5.763000000     1.106000000     2.525000000
C     2.712000000     2.395000000     3.150000000
H     2.957000000     3.406000000     2.835000000
C     1.535000000     2.244000000     3.835000000
C     0.734000000     3.491000000     4.115000000
H     1.488000000     4.272000000     4.228000000
H     0.140000000     3.318000000     5.015000000
C    -0.253000000     3.738000000     3.008000000
C     0.049000000     4.630000000     1.998000000
H     1.035000000     5.088000000     2.016000000
C    -1.511000000     3.135000000     3.008000000
C    -2.414000000     3.412000000     2.027000000
H    -3.420000000     3.010000000     1.932000000
C    -2.040000000     4.202000000     0.917000000
O    -2.783000000     4.202000000    -0.192000000
C    -2.349000000     3.341000000    -1.261000000
C    -3.568000000     2.494000000    -1.690000000
C    -3.543000000     1.646000000    -2.745000000
H    -2.623000000     1.740000000    -3.317000000
C    -4.775000000     2.500000000    -1.001000000
H    -4.934000000     3.284000000    -0.265000000
O    -1.721000000     4.018000000    -2.318000000
H    -1.677000000     2.604000000    -0.799000000
C    -0.797000000     4.878000000     0.920000000
C    -0.236000000     5.620000000    -0.357000000
H     0.458000000     6.341000000     0.082000000
H    -1.035000000     6.152000000    -0.877000000
C     0.422000000     4.724000000    -1.366000000
C     1.793000000     4.587000000    -1.325000000
H     2.369000000     5.041000000    -0.523000000
C    -0.330000000     4.067000000    -2.332000000
C     0.211000000     3.190000000    -3.244000000
H    -0.474000000     2.619000000    -3.866000000
C     1.628000000     3.052000000    -3.245000000
O     2.182000000     2.141000000    -4.128000000
C     2.285000000     0.797000000    -3.513000000
C     1.831000000    -0.228000000    -4.506000000
C     0.800000000     0.013000000    -5.373000000
H     0.210000000     0.926000000    -5.372000000
C     2.420000000    -1.489000000    -4.447000000
H     3.290000000    -1.699000000    -3.831000000
O     3.707000000     0.705000000    -3.172000000
H     1.703000000     0.780000000    -2.579000000
C     2.418000000     3.739000000    -2.281000000
C     3.871000000     3.503000000    -2.259000000
H     4.373000000     4.392000000    -1.872000000
H     4.151000000     3.372000000    -3.307000000
C     4.178000000     2.244000000    -1.440000000
C     4.075000000     0.957000000    -1.909000000
C     4.409000000    -0.133000000    -1.187000000
H     4.470000000    -1.159000000    -1.541000000
C     4.757000000     0.061000000     0.173000000
O     4.872000000    -1.118000000     0.951000000
C     3.655000000    -1.575000000     1.667000000
H     2.960000000    -0.947000000     1.090000000
C     3.336000000    -3.063000000     1.486000000
C     2.902000000    -3.734000000     2.651000000
H     2.617000000    -3.226000000     3.569000000
C     3.391000000    -3.745000000     0.291000000
H     3.847000000    -3.253000000    -0.564000000
C     3.105000000    -5.076000000     0.176000000
O     3.104000000    -5.747000000    -1.042000000
C     2.665000000    -5.765000000     1.311000000
H     2.646000000    -6.842000000     1.168000000
C     2.616000000    -5.087000000     2.537000000
O     1.952000000    -5.771000000     3.608000000
C     1.088000000    -5.312000000     4.625000000
C    -0.140000000    -4.667000000     4.387000000
H    -0.540000000    -4.482000000     3.393000000
C     1.518000000    -5.632000000     5.929000000
H     2.424000000    -6.193000000     6.146000000
C     0.638000000    -5.233000000     6.994000000
H     1.032000000    -5.293000000     8.005000000
C    -0.591000000    -4.596000000     6.760000000
H    -1.236000000    -4.290000000     7.580000000
C    -1.013000000    -4.326000000     5.464000000
O    -2.272000000    -3.811000000     5.242000000
C    -2.670000000    -2.549000000     4.825000000
C    -3.986000000    -2.463000000     4.341000000
H    -4.580000000    -3.374000000     4.358000000
C    -4.460000000    -1.325000000     3.758000000
O    -5.775000000    -1.261000000     3.339000000
C    -6.410000000    -0.145000000     2.854000000
C    -6.241000000     0.180000000     1.529000000
H    -5.701000000    -0.521000000     0.896000000
C    -7.287000000     0.561000000     3.622000000
H    -7.451000000     0.329000000     4.672000000
C    -8.065000000     1.579000000     3.061000000
H    -8.787000000     2.124000000     3.664000000
C    -7.829000000     1.922000000     1.702000000
H    -8.507000000     2.534000000     1.113000000
C    -6.871000000     1.266000000     0.967000000
O    -6.832000000     1.526000000    -0.393000000
C    -5.755000000     1.528000000    -1.235000000
C    -5.690000000     0.599000000    -2.260000000
H    -6.440000000    -0.171000000    -2.421000000
C    -4.588000000     0.680000000    -3.080000000
O    -4.413000000    -0.132000000    -4.214000000
C    -3.663000000     0.309000000    -5.326000000
C    -2.612000000    -0.496000000    -5.729000000
H    -2.487000000    -1.412000000    -5.157000000
C    -3.974000000     1.533000000    -5.946000000
H    -4.852000000     2.057000000    -5.576000000
C    -3.136000000     1.946000000    -7.034000000
H    -3.249000000     2.909000000    -7.524000000
C    -2.008000000     1.122000000    -7.420000000
H    -1.379000000     1.438000000    -8.249000000
C    -1.777000000    -0.050000000    -6.730000000
O    -0.704000000    -0.812000000    -7.018000000
C     0.347000000    -0.981000000    -6.220000000
C     1.043000000    -2.210000000    -6.310000000
H     0.753000000    -2.904000000    -7.095000000
C     2.074000000    -2.467000000    -5.372000000
O     2.808000000    -3.646000000    -5.417000000
C     3.594000000    -4.216000000    -4.414000000
C     4.974000000    -4.123000000    -4.516000000
H     5.503000000    -3.697000000    -5.365000000
C     5.673000000    -4.443000000    -3.336000000
H     6.749000000    -4.371000000    -3.471000000
C     5.121000000    -5.067000000    -2.224000000
H     5.750000000    -5.396000000    -1.402000000
C     3.727000000    -5.277000000    -2.214000000
C     2.973000000    -4.680000000    -3.236000000
H     1.889000000    -4.766000000    -3.231000000
C    -0.210000000    -2.076000000    -1.160000000
H     0.112000000    -2.949000000    -1.722000000
C     0.643000000    -1.073000000    -0.816000000
H     1.683000000    -1.200000000    -1.105000000
C     0.160000000     0.049000000    -0.203000000
H     0.829000000     0.918000000    -0.053000000
C    -1.239000000     0.176000000     0.100000000
H    -1.683000000     1.067000000     0.536000000
C    -2.090000000    -0.849000000    -0.278000000
H    -3.175000000    -0.794000000    -0.293000000
C    -1.583000000    -2.056000000    -0.854000000
C    -2.457000000    -3.246000000    -1.130000000
O    -3.619000000    -3.259000000    -0.760000000
O    -2.134000000    -4.256000000    -1.700000000
O    -4.715000000    -4.705000000     1.184000000
H    -4.454000000    -4.130000000     0.464000000
H    -5.425000000    -4.233000000     1.621000000
O    -3.218000000    -4.065000000    -5.364000000
H    -4.080000000    -3.650000000    -5.324000000
H    -2.810000000    -3.696000000    -6.148000000
O    -4.622000000    -5.719000000    -1.939000000
H    -3.808000000    -5.246000000    -1.768000000
H    -5.300000000    -5.043000000    -1.920000000
O    -1.650000000    -5.636000000    -3.956000000
H    -1.552000000    -5.008000000    -3.240000000
H    -2.195000000    -5.182000000    -4.599000000
O    -0.809000000    -7.496000000     1.101000000
H    -0.726000000    -7.383000000     0.154000000
H    -0.788000000    -6.605000000     1.451000000
O    -1.478000000    -7.752000000    -2.223000000
H    -1.993000000    -8.412000000    -2.688000000
H    -1.747000000    -6.921000000    -2.615000000
O    -5.721000000    -2.539000000    -4.707000000
H    -5.230000000    -1.734000000    -4.541000000
H    -6.582000000    -2.240000000    -4.998000000
O    -7.676000000    -4.050000000    -3.148000000
H    -6.867000000    -3.735000000    -3.551000000
H    -8.011000000    -4.702000000    -3.763000000
O    -7.312000000    -7.074000000    -3.231000000
H    -6.358000000    -7.018000000    -3.173000000
H    -7.601000000    -7.186000000    -2.325000000
O     0.915000000    -8.868000000    -1.694000000
H     0.955000000    -8.966000000    -0.743000000
H    -0.002000000    -8.663000000    -1.876000000
O    -0.249000000    -5.132000000     0.111000000
H     0.118000000    -4.250000000     0.049000000
H    -0.887000000    -5.176000000    -0.602000000
O    -4.550000000    -8.774000000    -1.258000000
H    -4.053000000    -9.307000000    -0.637000000
H    -4.360000000    -7.871000000    -1.006000000
O    -7.240000000    -3.286000000     1.797000000
H    -6.909000000    -2.927000000     0.974000000
H    -7.972000000    -3.846000000     1.537000000
O    -2.728000000    -9.034000000     2.666000000
H    -2.067000000    -8.641000000     2.095000000
H    -3.538000000    -8.576000000     2.445000000
O    -2.522000000    -6.751000000    -7.027000000
H    -2.813000000    -7.559000000    -6.604000000
H    -2.924000000    -6.052000000    -6.511000000
O    -6.272000000    -2.575000000    -0.578000000
H    -6.471000000    -3.151000000    -1.316000000
H    -5.322000000    -2.632000000    -0.479000000
O    -4.823000000    -7.514000000     2.446000000
H    -4.603000000    -6.765000000     1.892000000
H    -5.475000000    -7.175000000     3.059000000
O     0.617000000    -7.376000000    -4.169000000
H     0.568000000    -7.800000000    -3.312000000
H    -0.075000000    -6.715000000    -4.149000000
O    -4.527000000    -7.566000000    -4.493000000
H    -4.865000000    -8.167000000    -3.830000000
H    -3.972000000    -6.958000000    -4.005000000
