215
-1438.32052
C    -3.283000000     1.932000000     2.722000000
H    -3.152000000     2.782000000     2.057000000
C    -2.231000000     1.533000000     3.525000000
C    -2.491000000     0.488000000     4.513000000
H    -1.755000000     0.197000000     5.258000000
C    -0.946000000     2.330000000     3.323000000
O    -0.974000000     3.771000000     3.070000000
H    -0.524000000     1.906000000     2.400000000
O    -0.039000000     2.040000000     4.428000000
C     1.195000000     1.545000000     4.075000000
C     1.412000000     0.197000000     4.203000000
H     0.638000000    -0.449000000     4.611000000
C     2.703000000    -0.320000000     3.922000000
O     2.850000000    -1.674000000     3.867000000
C     3.683000000     0.477000000     3.303000000
C     4.990000000    -0.061000000     2.680000000
H     5.782000000     0.689000000     2.632000000
C     4.721000000    -0.532000000     1.281000000
C     5.052000000     0.311000000     0.236000000
H     5.379000000     1.324000000     0.458000000
H     5.375000000    -0.930000000     3.218000000
C     3.463000000     1.862000000     3.114000000
H     4.153000000     2.557000000     2.641000000
C     2.155000000     2.370000000     3.464000000
C     1.932000000     3.862000000     3.456000000
H     2.892000000     4.382000000     3.461000000
H     1.443000000     4.146000000     4.390000000
C     1.235000000     4.268000000     2.205000000
C     1.952000000     4.504000000     1.025000000
H     3.037000000     4.438000000     1.052000000
C    -0.144000000     4.212000000     2.062000000
C    -0.799000000     4.559000000     0.881000000
H    -1.883000000     4.624000000     0.828000000
C    -0.017000000     4.742000000    -0.277000000
O    -0.732000000     4.781000000    -1.474000000
C    -0.737000000     3.645000000    -2.312000000
C    -1.917000000     3.353000000    -3.080000000
C    -1.977000000     2.781000000    -4.367000000
H    -1.064000000     2.493000000    -4.882000000
C    -3.049000000     3.731000000    -2.445000000
H    -3.019000000     4.055000000    -1.408000000
O     0.394000000     3.780000000    -3.164000000
H    -0.597000000     2.754000000    -1.681000000
C     1.347000000     4.739000000    -0.174000000
C     2.228000000     4.932000000    -1.349000000
H     3.190000000     5.404000000    -1.139000000
H     1.661000000     5.588000000    -2.013000000
C     2.441000000     3.588000000    -2.063000000
C     3.631000000     2.934000000    -1.836000000
H     4.374000000     3.229000000    -1.100000000
C     1.503000000     3.131000000    -2.957000000
C     1.647000000     1.931000000    -3.665000000
H     0.827000000     1.662000000    -4.327000000
C     2.860000000     1.273000000    -3.573000000
O     2.985000000     0.034000000    -4.075000000
C     2.558000000    -1.052000000    -3.177000000
C     1.614000000    -2.093000000    -3.616000000
C     0.544000000    -1.747000000    -4.369000000
H     0.262000000    -0.699000000    -4.435000000
C     1.895000000    -3.443000000    -3.453000000
H     2.819000000    -3.749000000    -2.970000000
O     3.798000000    -1.649000000    -2.662000000
H     2.034000000    -0.687000000    -2.281000000
C     3.839000000     1.752000000    -2.617000000
C     5.086000000     0.947000000    -2.284000000
H     5.933000000     1.528000000    -1.912000000
H     5.496000000     0.413000000    -3.144000000
C     4.747000000    -0.033000000    -1.138000000
C     4.216000000    -1.273000000    -1.385000000
C     3.897000000    -2.149000000    -0.316000000
H     3.519000000    -3.152000000    -0.498000000
C     4.216000000    -1.789000000     0.980000000
O     3.745000000    -2.694000000     1.874000000
C     2.575000000    -2.398000000     2.612000000
H     2.024000000    -1.585000000     2.116000000
C     1.508000000    -3.506000000     2.840000000
C     0.657000000    -3.550000000     3.939000000
H     0.769000000    -2.851000000     4.764000000
C     1.201000000    -4.342000000     1.724000000
H     1.783000000    -4.165000000     0.823000000
C     0.256000000    -5.292000000     1.798000000
O    -0.073000000    -6.154000000     0.795000000
C    -0.482000000    -5.387000000     2.968000000
H    -1.188000000    -6.181000000     3.197000000
C    -0.294000000    -4.520000000     4.027000000
O    -1.055000000    -4.754000000     5.226000000
C    -1.672000000    -3.758000000     5.997000000
C    -2.484000000    -2.808000000     5.341000000
H    -2.529000000    -2.796000000     4.255000000
C    -1.531000000    -3.771000000     7.394000000
H    -0.774000000    -4.366000000     7.897000000
C    -2.332000000    -2.864000000     8.118000000
H    -2.299000000    -2.815000000     9.204000000
C    -3.288000000    -2.054000000     7.456000000
H    -3.993000000    -1.520000000     8.087000000
C    -3.279000000    -1.972000000     6.111000000
O    -4.179000000    -1.204000000     5.378000000
C    -3.779000000    -0.159000000     4.507000000
C    -4.761000000     0.240000000     3.591000000
H    -5.770000000    -0.163000000     3.618000000
C    -4.486000000     1.241000000     2.706000000
O    -5.488000000     1.573000000     1.789000000
C    -5.473000000     2.805000000     1.122000000
C    -5.434000000     2.774000000    -0.281000000
H    -5.453000000     1.807000000    -0.776000000
C    -5.427000000     3.995000000     1.821000000
H    -5.430000000     4.020000000     2.908000000
C    -5.352000000     5.178000000     1.080000000
H    -5.271000000     6.141000000     1.577000000
C    -5.443000000     5.172000000    -0.358000000
H    -5.462000000     6.062000000    -0.982000000
C    -5.444000000     3.964000000    -0.992000000
O    -5.396000000     3.958000000    -2.386000000
C    -4.242000000     3.685000000    -3.079000000
C    -4.361000000     3.057000000    -4.357000000
H    -5.336000000     2.889000000    -4.809000000
C    -3.195000000     2.632000000    -5.023000000
O    -3.309000000     1.972000000    -6.213000000
C    -2.458000000     1.004000000    -6.602000000
C    -2.211000000    -0.068000000    -5.760000000
H    -2.598000000     0.030000000    -4.749000000
C    -2.087000000     0.897000000    -7.960000000
H    -2.323000000     1.723000000    -8.625000000
C    -1.371000000    -0.244000000    -8.393000000
H    -1.087000000    -0.285000000    -9.441000000
C    -1.126000000    -1.277000000    -7.506000000
H    -0.553000000    -2.146000000    -7.822000000
C    -1.536000000    -1.152000000    -6.174000000
O    -1.549000000    -2.277000000    -5.369000000
C    -0.414000000    -2.700000000    -4.649000000
C    -0.254000000    -4.051000000    -4.376000000
H    -1.013000000    -4.811000000    -4.542000000
C     0.997000000    -4.411000000    -3.885000000
O     1.263000000    -5.755000000    -3.732000000
C     1.495000000    -6.254000000    -2.442000000
C     2.667000000    -7.025000000    -2.189000000
H     3.335000000    -7.189000000    -3.030000000
C     2.931000000    -7.523000000    -0.949000000
H     3.814000000    -8.094000000    -0.676000000
C     1.985000000    -7.211000000     0.052000000
H     2.083000000    -7.634000000     1.048000000
C     0.827000000    -6.446000000    -0.195000000
C     0.569000000    -6.047000000    -1.469000000
H    -0.366000000    -5.576000000    -1.762000000
C    -0.948000000    -2.134000000    -1.038000000
H    -0.809000000    -3.172000000    -1.330000000
C     0.133000000    -1.401000000    -0.584000000
H     1.074000000    -1.931000000    -0.459000000
C     0.057000000    -0.042000000    -0.313000000
H     0.920000000     0.483000000    -0.003000000
C    -1.179000000     0.526000000    -0.428000000
H    -1.237000000     1.567000000    -0.120000000
C    -2.328000000    -0.211000000    -0.855000000
H    -3.333000000     0.201000000    -0.807000000
C    -2.213000000    -1.573000000    -1.193000000
C    -3.410000000    -2.477000000    -1.670000000
O    -4.408000000    -1.951000000    -2.069000000
O    -3.202000000    -3.661000000    -1.657000000
O    -3.090000000    -4.920000000     0.756000000
H    -2.164000000    -4.690000000     0.678000000
H    -3.482000000    -4.616000000    -0.063000000
O    -5.768000000     0.055000000    -6.929000000
H    -5.534000000    -0.171000000    -6.028000000
H    -5.533000000     0.979000000    -7.012000000
O    -5.659000000    -5.204000000    -1.395000000
H    -5.265000000    -4.522000000    -1.939000000
H    -5.289000000    -6.021000000    -1.730000000
O    -7.837000000    -3.858000000    -0.378000000
H    -7.129000000    -4.496000000    -0.465000000
H    -7.397000000    -3.041000000    -0.146000000
O    -6.007000000    -0.747000000    -4.290000000
H    -5.413000000    -1.116000000    -3.636000000
H    -6.565000000    -1.481000000    -4.547000000
O    -3.809000000    -3.451000000    -4.385000000
H    -3.721000000    -3.136000000    -3.485000000
H    -3.243000000    -2.875000000    -4.897000000
O    -4.066000000    -5.996000000    -4.700000000
H    -4.703000000    -6.275000000    -5.357000000
H    -4.091000000    -5.040000000    -4.732000000
O    -6.799000000    -3.331000000    -5.552000000
H    -7.006000000    -2.838000000    -6.346000000
H    -5.873000000    -3.554000000    -5.644000000
O    -2.345000000    -8.539000000    -1.203000000
H    -1.623000000    -8.704000000    -1.809000000
H    -2.789000000    -7.771000000    -1.563000000
O    -2.113000000    -7.846000000    -5.672000000
H    -2.644000000    -8.598000000    -5.935000000
H    -2.644000000    -7.396000000    -5.015000000
O    -7.944000000     1.192000000    -2.532000000
H    -7.015000000     1.010000000    -2.674000000
H    -8.307000000     0.360000000    -2.227000000
O    -9.410000000    -1.665000000    -2.139000000
H    -8.590000000    -2.110000000    -1.925000000
H   -10.090000000    -2.218000000    -1.755000000
O    -2.799000000    -5.985000000    -2.317000000
H    -3.159000000    -5.951000000    -3.204000000
H    -2.805000000    -5.075000000    -2.021000000
O    -6.476000000    -1.560000000    -0.117000000
H    -6.113000000    -1.868000000     0.713000000
H    -5.758000000    -1.653000000    -0.742000000
O    -1.760000000    -1.617000000     1.835000000
H    -2.509000000    -1.105000000     1.532000000
H    -1.181000000    -1.667000000     1.075000000
O    -8.438000000     0.465000000     1.469000000
H    -8.084000000     0.950000000     0.724000000
H    -8.222000000    -0.449000000     1.284000000
O    -5.635000000    -6.121000000     1.259000000
H    -4.709000000    -6.055000000     1.492000000
H    -5.710000000    -5.638000000     0.436000000
O    -4.846000000    -2.503000000     1.852000000
H    -4.381000000    -3.304000000     1.610000000
H    -4.488000000    -2.268000000     2.708000000
O    -7.804000000    -4.844000000    -3.737000000
H    -7.330000000    -4.258000000    -4.327000000
H    -7.816000000    -4.382000000    -2.899000000
