215
-1463.26300
C    -4.248000000     1.973000000     2.796000000
H    -4.285000000     3.038000000     2.584000000
C    -3.005000000     1.394000000     3.062000000
C    -2.884000000     0.003000000     3.250000000
H    -1.925000000    -0.449000000     3.488000000
C    -1.696000000     2.266000000     3.116000000
O    -1.960000000     3.686000000     2.683000000
H    -1.089000000     1.783000000     2.336000000
O    -1.005000000     2.163000000     4.351000000
C     0.365000000     1.921000000     4.247000000
C     0.888000000     0.650000000     4.558000000
H     0.183000000    -0.097000000     4.913000000
C     2.161000000     0.337000000     4.277000000
O     2.418000000    -1.006000000     4.343000000
C     3.039000000     1.273000000     3.639000000
C     4.459000000     0.850000000     3.239000000
H     5.140000000     1.702000000     3.293000000
C     4.539000000     0.283000000     1.840000000
C     4.848000000     1.078000000     0.753000000
H     4.973000000     2.142000000     0.940000000
H     4.905000000     0.159000000     3.958000000
C     2.585000000     2.613000000     3.492000000
H     3.343000000     3.245000000     3.035000000
C     1.275000000     2.964000000     3.803000000
C     0.788000000     4.325000000     3.463000000
H     1.605000000     5.042000000     3.574000000
H     0.040000000     4.688000000     4.170000000
C     0.256000000     4.560000000     2.010000000
C     1.085000000     4.893000000     0.908000000
H     2.110000000     5.146000000     1.164000000
C    -1.122000000     4.223000000     1.798000000
C    -1.605000000     4.320000000     0.502000000
H    -2.633000000     4.045000000     0.280000000
C    -0.780000000     4.723000000    -0.590000000
O    -1.366000000     4.682000000    -1.864000000
C    -0.956000000     3.516000000    -2.672000000
C    -2.156000000     3.004000000    -3.353000000
C    -1.985000000     2.419000000    -4.636000000
H    -1.031000000     2.352000000    -5.154000000
C    -3.362000000     2.810000000    -2.715000000
H    -3.504000000     3.110000000    -1.680000000
O     0.201000000     3.816000000    -3.561000000
H    -0.566000000     2.681000000    -2.072000000
C     0.575000000     4.939000000    -0.387000000
C     1.506000000     5.206000000    -1.525000000
H     2.417000000     5.684000000    -1.158000000
H     1.026000000     5.899000000    -2.219000000
C     2.145000000     3.998000000    -2.112000000
C     3.257000000     3.403000000    -1.607000000
H     3.818000000     3.822000000    -0.776000000
C     1.440000000     3.439000000    -3.212000000
C     1.928000000     2.299000000    -3.806000000
H     1.310000000     1.850000000    -4.580000000
C     3.067000000     1.642000000    -3.293000000
O     3.367000000     0.292000000    -3.684000000
C     3.102000000    -0.824000000    -2.670000000
C     2.411000000    -1.988000000    -3.290000000
C     1.533000000    -1.804000000    -4.349000000
H     1.584000000    -0.840000000    -4.850000000
C     2.386000000    -3.237000000    -2.630000000
H     3.085000000    -3.413000000    -1.816000000
O     4.334000000    -1.212000000    -2.093000000
H     2.462000000    -0.430000000    -1.867000000
C     3.797000000     2.266000000    -2.223000000
C     5.059000000     1.584000000    -1.661000000
H     5.687000000     2.382000000    -1.261000000
H     5.670000000     1.143000000    -2.451000000
C     4.783000000     0.650000000    -0.552000000
C     4.535000000    -0.689000000    -0.798000000
C     4.401000000    -1.586000000     0.298000000
H     4.198000000    -2.650000000     0.205000000
C     4.242000000    -1.048000000     1.608000000
O     3.813000000    -1.864000000     2.602000000
C     2.438000000    -1.839000000     3.144000000
H     1.791000000    -1.398000000     2.371000000
C     1.899000000    -3.189000000     3.398000000
C     0.879000000    -3.424000000     4.303000000
H     0.618000000    -2.662000000     5.032000000
C     2.256000000    -4.317000000     2.587000000
H     3.004000000    -4.246000000     1.801000000
C     1.655000000    -5.573000000     2.698000000
O     2.007000000    -6.664000000     1.886000000
C     0.674000000    -5.772000000     3.649000000
H     0.159000000    -6.726000000     3.737000000
C     0.278000000    -4.668000000     4.430000000
O    -0.632000000    -4.895000000     5.396000000
C    -1.837000000    -4.109000000     5.581000000
C    -2.281000000    -3.298000000     4.576000000
H    -1.811000000    -3.311000000     3.597000000
C    -2.553000000    -4.174000000     6.752000000
H    -2.184000000    -4.798000000     7.562000000
C    -3.699000000    -3.454000000     6.990000000
H    -4.192000000    -3.420000000     7.958000000
C    -4.164000000    -2.571000000     5.976000000
H    -5.117000000    -2.052000000     6.027000000
C    -3.441000000    -2.560000000     4.739000000
O    -4.018000000    -2.085000000     3.615000000
C    -4.043000000    -0.787000000     3.204000000
C    -5.320000000    -0.231000000     2.909000000
H    -6.226000000    -0.830000000     2.872000000
C    -5.344000000     1.178000000     2.611000000
O    -6.441000000     1.842000000     2.170000000
C    -6.358000000     2.572000000     1.015000000
C    -6.031000000     1.928000000    -0.138000000
H    -5.773000000     0.873000000    -0.095000000
C    -6.654000000     3.950000000     1.017000000
H    -6.824000000     4.423000000     1.980000000
C    -6.438000000     4.654000000    -0.107000000
H    -6.476000000     5.737000000    -0.024000000
C    -6.157000000     4.027000000    -1.352000000
H    -6.253000000     4.655000000    -2.234000000
C    -5.926000000     2.635000000    -1.356000000
O    -5.630000000     1.921000000    -2.509000000
C    -4.438000000     2.145000000    -3.272000000
C    -4.290000000     1.601000000    -4.526000000
H    -5.232000000     1.127000000    -4.789000000
C    -3.109000000     1.797000000    -5.237000000
O    -2.877000000     1.166000000    -6.437000000
C    -1.667000000     0.552000000    -6.709000000
C    -1.416000000    -0.660000000    -6.109000000
H    -2.133000000    -1.118000000    -5.433000000
C    -0.743000000     1.082000000    -7.635000000
H    -1.104000000     1.974000000    -8.141000000
C     0.443000000     0.407000000    -7.951000000
H     1.143000000     0.749000000    -8.709000000
C     0.661000000    -0.842000000    -7.372000000
H     1.494000000    -1.455000000    -7.705000000
C    -0.281000000    -1.455000000    -6.529000000
O    -0.099000000    -2.686000000    -5.919000000
C     0.751000000    -2.821000000    -4.857000000
C     0.754000000    -4.070000000    -4.219000000
H     0.058000000    -4.827000000    -4.569000000
C     1.594000000    -4.315000000    -3.150000000
O     1.506000000    -5.591000000    -2.658000000
C     2.319000000    -6.151000000    -1.697000000
C     3.533000000    -6.734000000    -1.986000000
H     3.850000000    -6.677000000    -3.024000000
C     4.229000000    -7.220000000    -0.939000000
H     5.128000000    -7.782000000    -1.177000000
C     3.804000000    -7.060000000     0.372000000
H     4.291000000    -7.406000000     1.280000000
C     2.515000000    -6.574000000     0.582000000
C     1.764000000    -6.047000000    -0.454000000
H     0.756000000    -5.689000000    -0.262000000
C    -0.764000000    -2.343000000    -1.583000000
H    -0.486000000    -3.386000000    -1.712000000
C    -0.115000000    -1.512000000    -0.643000000
H     0.721000000    -1.884000000    -0.057000000
C    -0.485000000    -0.119000000    -0.434000000
H     0.106000000     0.504000000     0.246000000
C    -1.603000000     0.301000000    -1.062000000
H    -1.956000000     1.308000000    -0.855000000
C    -2.243000000    -0.515000000    -2.018000000
H    -3.044000000     0.041000000    -2.499000000
C    -1.886000000    -1.817000000    -2.261000000
C    -2.702000000    -2.697000000    -3.199000000
O    -3.605000000    -2.263000000    -3.862000000
O    -2.487000000    -3.899000000    -3.076000000
O    -1.401000000    -6.027000000     1.468000000
H    -0.466000000    -5.998000000     1.670000000
H    -1.441000000    -5.984000000     0.513000000
O    -0.879000000    -5.089000000    -7.540000000
H    -1.490000000    -5.586000000    -6.997000000
H    -0.780000000    -4.252000000    -7.085000000
O    -3.359000000    -7.480000000    -6.809000000
H    -3.071000000    -6.888000000    -6.114000000
H    -2.617000000    -8.068000000    -6.945000000
O    -4.429000000    -5.964000000    -2.349000000
H    -4.956000000    -5.868000000    -3.142000000
H    -3.712000000    -5.340000000    -2.460000000
O    -7.228000000    -6.038000000    -1.103000000
H    -6.337000000    -5.733000000    -1.274000000
H    -7.786000000    -5.303000000    -1.355000000
O    -5.645000000    -2.907000000    -5.441000000
H    -5.011000000    -2.512000000    -4.843000000
H    -6.323000000    -2.239000000    -5.547000000
O    -2.942000000    -5.197000000    -5.355000000
H    -2.604000000    -4.669000000    -4.632000000
H    -3.893000000    -5.106000000    -5.294000000
O    -6.005000000    -7.650000000    -6.356000000
H    -6.068000000    -6.991000000    -5.665000000
H    -5.073000000    -7.688000000    -6.567000000
O    -8.179000000    -3.754000000    -2.479000000
H    -8.876000000    -3.296000000    -2.948000000
H    -7.460000000    -3.123000000    -2.442000000
O    -3.683000000    -2.874000000    -7.883000000
H    -3.229000000    -2.961000000    -7.045000000
H    -4.494000000    -2.412000000    -7.669000000
O    -7.632000000    -1.149000000    -5.904000000
H    -7.566000000    -0.362000000    -5.363000000
H    -8.573000000    -1.304000000    -5.987000000
O    -1.451000000    -5.917000000    -1.349000000
H    -1.751000000    -5.168000000    -1.863000000
H    -1.506000000    -6.659000000    -1.953000000
O    -5.970000000    -1.900000000    -2.536000000
H    -5.591000000    -1.822000000    -1.660000000
H    -5.219000000    -1.861000000    -3.127000000
O    -2.843000000    -3.716000000     0.732000000
H    -2.900000000    -3.842000000    -0.215000000
H    -2.508000000    -4.549000000     1.065000000
O    -5.255000000    -4.989000000     2.117000000
H    -4.643000000    -5.638000000     2.462000000
H    -4.812000000    -4.150000000     2.245000000
O    -4.278000000    -1.515000000    -0.159000000
H    -3.958000000    -2.222000000     0.401000000
H    -3.525000000    -0.934000000    -0.267000000
O    -8.026000000     0.112000000    -3.166000000
H    -8.856000000    -0.352000000    -3.055000000
H    -7.386000000    -0.430000000    -2.705000000
O    -6.060000000    -5.360000000    -4.615000000
H    -6.875000000    -5.283000000    -4.119000000
H    -6.012000000    -4.551000000    -5.125000000
O    -0.806000000    -8.129000000    -3.316000000
H    -0.584000000    -7.868000000    -4.210000000
H    -1.425000000    -8.851000000    -3.424000000
