215
-1453.87574
C    -4.031000000     1.760000000     2.233000000
H    -3.853000000     2.738000000     1.794000000
C    -2.955000000     1.253000000     3.008000000
C    -3.161000000    -0.020000000     3.589000000
H    -2.348000000    -0.613000000     4.000000000
C    -1.674000000     1.991000000     3.049000000
O    -1.727000000     3.353000000     2.797000000
H    -1.102000000     1.493000000     2.252000000
O    -1.030000000     1.678000000     4.294000000
C     0.321000000     1.290000000     4.263000000
C     0.635000000    -0.037000000     4.577000000
H    -0.143000000    -0.755000000     4.821000000
C     1.947000000    -0.465000000     4.411000000
O     2.224000000    -1.818000000     4.434000000
C     2.953000000     0.453000000     3.997000000
C     4.353000000    -0.067000000     3.681000000
H     5.115000000     0.669000000     3.946000000
C     4.465000000    -0.501000000     2.211000000
C     4.915000000     0.369000000     1.265000000
H     5.368000000     1.314000000     1.555000000
H     4.574000000    -0.982000000     4.234000000
C     2.657000000     1.803000000     3.804000000
H     3.451000000     2.496000000     3.539000000
C     1.311000000     2.187000000     3.885000000
C     1.059000000     3.664000000     3.789000000
H     1.949000000     4.263000000     3.992000000
H     0.196000000     3.926000000     4.405000000
C     0.562000000     4.004000000     2.421000000
C     1.557000000     4.464000000     1.498000000
H     2.596000000     4.605000000     1.785000000
C    -0.764000000     3.876000000     2.015000000
C    -1.124000000     4.149000000     0.761000000
H    -2.132000000     3.839000000     0.500000000
C    -0.240000000     4.676000000    -0.157000000
O    -0.637000000     4.811000000    -1.474000000
C    -0.343000000     3.747000000    -2.355000000
C    -1.552000000     3.376000000    -3.222000000
C    -1.296000000     2.899000000    -4.550000000
H    -0.255000000     2.980000000    -4.850000000
C    -2.817000000     3.261000000    -2.735000000
H    -2.873000000     3.534000000    -1.684000000
O     0.828000000     4.131000000    -3.113000000
H    -0.171000000     2.857000000    -1.732000000
C     1.111000000     4.870000000     0.227000000
C     2.177000000     5.238000000    -0.767000000
H     3.045000000     5.587000000    -0.203000000
H     1.822000000     6.102000000    -1.333000000
C     2.601000000     3.984000000    -1.611000000
C     3.726000000     3.284000000    -1.141000000
H     4.207000000     3.562000000    -0.207000000
C     1.925000000     3.503000000    -2.736000000
C     2.392000000     2.344000000    -3.392000000
H     1.941000000     1.995000000    -4.317000000
C     3.377000000     1.588000000    -2.819000000
O     3.630000000     0.401000000    -3.389000000
C     3.038000000    -0.724000000    -2.606000000
C     2.264000000    -1.722000000    -3.364000000
C     1.781000000    -1.348000000    -4.628000000
H     1.943000000    -0.361000000    -5.053000000
C     1.923000000    -2.972000000    -2.824000000
H     2.395000000    -3.159000000    -1.862000000
O     4.111000000    -1.326000000    -1.918000000
H     2.454000000    -0.287000000    -1.782000000
C     4.078000000     2.046000000    -1.733000000
C     5.205000000     1.261000000    -1.096000000
H     5.949000000     1.935000000    -0.666000000
H     5.760000000     0.768000000    -1.897000000
C     4.718000000     0.218000000    -0.089000000
C     4.359000000    -1.042000000    -0.562000000
C     4.018000000    -2.030000000     0.339000000
H     3.680000000    -2.990000000    -0.042000000
C     3.948000000    -1.722000000     1.719000000
O     3.411000000    -2.689000000     2.559000000
C     2.117000000    -2.389000000     3.108000000
H     1.524000000    -1.757000000     2.431000000
C     1.395000000    -3.688000000     3.316000000
C     0.384000000    -3.872000000     4.314000000
H     0.289000000    -3.124000000     5.097000000
C     1.340000000    -4.555000000     2.221000000
H     2.009000000    -4.425000000     1.374000000
C     0.644000000    -5.785000000     2.364000000
O     0.845000000    -6.771000000     1.402000000
C    -0.176000000    -5.992000000     3.458000000
H    -0.735000000    -6.909000000     3.621000000
C    -0.464000000    -4.938000000     4.338000000
O    -1.206000000    -5.148000000     5.478000000
C    -2.313000000    -4.315000000     5.730000000
C    -3.019000000    -3.678000000     4.725000000
H    -2.956000000    -4.146000000     3.746000000
C    -2.600000000    -3.931000000     7.049000000
H    -1.939000000    -4.305000000     7.826000000
C    -3.542000000    -2.881000000     7.351000000
H    -3.676000000    -2.495000000     8.359000000
C    -4.235000000    -2.227000000     6.292000000
H    -4.974000000    -1.449000000     6.466000000
C    -3.961000000    -2.666000000     4.978000000
O    -4.622000000    -1.952000000     3.977000000
C    -4.423000000    -0.651000000     3.540000000
C    -5.534000000    -0.068000000     2.899000000
H    -6.441000000    -0.662000000     2.987000000
C    -5.269000000     1.106000000     2.139000000
O    -6.309000000     1.688000000     1.490000000
C    -6.158000000     2.568000000     0.428000000
C    -5.842000000     2.144000000    -0.853000000
H    -5.594000000     1.107000000    -1.063000000
C    -6.379000000     3.907000000     0.674000000
H    -6.799000000     4.225000000     1.626000000
C    -6.013000000     4.859000000    -0.307000000
H    -6.054000000     5.921000000    -0.079000000
C    -5.571000000     4.446000000    -1.538000000
H    -5.345000000     5.189000000    -2.299000000
C    -5.523000000     3.105000000    -1.840000000
O    -5.168000000     2.775000000    -3.165000000
C    -3.839000000     2.845000000    -3.537000000
C    -3.622000000     2.504000000    -4.870000000
H    -4.487000000     2.122000000    -5.405000000
C    -2.371000000     2.480000000    -5.401000000
O    -2.267000000     2.090000000    -6.680000000
C    -1.172000000     1.347000000    -7.165000000
C    -0.841000000     0.176000000    -6.568000000
H    -1.457000000    -0.131000000    -5.727000000
C    -0.383000000     1.850000000    -8.201000000
H    -0.597000000     2.845000000    -8.583000000
C     0.748000000     1.134000000    -8.651000000
H     1.417000000     1.484000000    -9.433000000
C     0.988000000    -0.099000000    -8.087000000
H     1.877000000    -0.651000000    -8.382000000
C     0.236000000    -0.562000000    -7.016000000
O     0.357000000    -1.865000000    -6.514000000
C     0.928000000    -2.206000000    -5.323000000
C     0.639000000    -3.408000000    -4.797000000
H    -0.088000000    -4.116000000    -5.185000000
C     1.146000000    -3.853000000    -3.574000000
O     0.556000000    -4.925000000    -3.013000000
C     1.227000000    -5.679000000    -1.998000000
C     2.475000000    -6.333000000    -2.297000000
H     2.969000000    -6.382000000    -3.264000000
C     3.055000000    -7.151000000    -1.377000000
H     3.978000000    -7.706000000    -1.526000000
C     2.490000000    -7.263000000    -0.171000000
H     2.818000000    -8.041000000     0.514000000
C     1.301000000    -6.612000000     0.142000000
C     0.678000000    -5.790000000    -0.785000000
H    -0.257000000    -5.291000000    -0.542000000
C    -0.665000000    -2.032000000    -0.937000000
H    -0.579000000    -3.100000000    -1.121000000
C     0.362000000    -1.246000000    -0.448000000
H     1.294000000    -1.784000000    -0.302000000
C     0.116000000     0.103000000    -0.130000000
H     0.954000000     0.652000000     0.204000000
C    -1.105000000     0.662000000    -0.373000000
H    -1.324000000     1.720000000    -0.252000000
C    -2.106000000    -0.113000000    -0.989000000
H    -3.050000000     0.376000000    -1.213000000
C    -1.929000000    -1.494000000    -1.235000000
C    -3.046000000    -2.303000000    -1.892000000
O    -3.861000000    -1.726000000    -2.557000000
O    -3.139000000    -3.475000000    -1.640000000
O    -4.135000000    -3.336000000     0.839000000
H    -3.788000000    -3.364000000    -0.053000000
H    -3.366000000    -3.187000000     1.390000000
O    -6.886000000     0.591000000    -6.040000000
H    -7.618000000     1.128000000    -5.735000000
H    -7.233000000     0.122000000    -6.799000000
O    -0.953000000    -6.708000000    -5.152000000
H    -0.462000000    -6.645000000    -4.333000000
H    -1.791000000    -6.285000000    -4.962000000
O    -5.488000000    -4.547000000    -2.957000000
H    -4.789000000    -3.977000000    -2.638000000
H    -6.059000000    -3.967000000    -3.460000000
O    -8.497000000    -4.039000000     0.309000000
H    -7.652000000    -4.228000000    -0.098000000
H    -8.737000000    -4.854000000     0.752000000
O    -3.772000000    -1.713000000    -5.461000000
H    -4.587000000    -1.237000000    -5.624000000
H    -3.574000000    -1.541000000    -4.541000000
O    -3.035000000    -4.985000000    -4.094000000
H    -2.692000000    -4.603000000    -3.286000000
H    -3.983000000    -5.013000000    -3.962000000
O    -3.391000000    -7.211000000     1.669000000
H    -3.423000000    -6.590000000     0.941000000
H    -3.832000000    -6.759000000     2.389000000
O    -2.895000000    -3.785000000    -6.943000000
H    -2.898000000    -4.385000000    -6.197000000
H    -3.294000000    -2.983000000    -6.607000000
O    -4.538000000    -9.200000000    -3.553000000
H    -3.991000000    -8.892000000    -2.830000000
H    -4.043000000    -9.923000000    -3.938000000
O    -8.661000000    -1.381000000     0.285000000
H    -8.884000000    -2.271000000     0.559000000
H    -7.713000000    -1.403000000     0.152000000
O    -7.247000000    -2.411000000    -4.953000000
H    -7.463000000    -2.074000000    -4.084000000
H    -6.976000000    -1.638000000    -5.450000000
O    -6.216000000    -4.553000000     2.328000000
H    -6.909000000    -4.900000000     1.766000000
H    -5.545000000    -4.245000000     1.719000000
O    -3.703000000    -6.118000000    -0.968000000
H    -3.393000000    -5.229000000    -1.140000000
H    -3.116000000    -6.678000000    -1.476000000
O    -7.938000000    -2.053000000    -2.458000000
H    -8.713000000    -2.336000000    -1.973000000
H    -7.245000000    -2.010000000    -1.799000000
O    -6.371000000    -5.851000000    -0.839000000
H    -6.342000000    -5.352000000    -1.655000000
H    -5.455000000    -6.055000000    -0.650000000
O    -5.810000000    -1.662000000    -0.563000000
H    -5.245000000    -1.413000000    -1.294000000
H    -5.233000000    -2.138000000     0.034000000
O    -6.503000000    -7.216000000    -3.991000000
H    -5.810000000    -7.876000000    -4.005000000
H    -6.067000000    -6.417000000    -3.694000000
O    -2.281000000    -8.046000000    -2.140000000
H    -1.814000000    -8.737000000    -2.609000000
H    -2.199000000    -8.285000000    -1.217000000
