215
-1435.90771
C    -4.661000000     1.978000000     1.677000000
H    -4.449000000     3.043000000     1.651000000
C    -3.690000000     1.293000000     2.430000000
C    -3.733000000    -0.118000000     2.409000000
H    -2.945000000    -0.712000000     2.865000000
C    -2.409000000     1.885000000     2.978000000
O    -2.433000000     3.347000000     2.991000000
H    -1.671000000     1.583000000     2.220000000
O    -2.010000000     1.358000000     4.273000000
C    -0.743000000     0.872000000     4.332000000
C    -0.443000000    -0.509000000     4.314000000
H    -1.269000000    -1.211000000     4.235000000
C     0.809000000    -0.957000000     4.277000000
O     1.027000000    -2.338000000     4.285000000
C     1.862000000    -0.142000000     4.451000000
C     3.223000000    -0.733000000     4.397000000
H     3.875000000    -0.017000000     4.901000000
C     3.739000000    -0.988000000     2.971000000
C     4.479000000    -0.027000000     2.277000000
H     4.646000000     0.946000000     2.731000000
H     3.316000000    -1.614000000     5.035000000
C     1.673000000     1.222000000     4.651000000
H     2.531000000     1.870000000     4.809000000
C     0.356000000     1.730000000     4.518000000
C     0.120000000     3.229000000     4.605000000
H     0.949000000     3.690000000     5.146000000
H    -0.756000000     3.486000000     5.204000000
C     0.034000000     3.825000000     3.255000000
C     1.262000000     4.180000000     2.651000000
H     2.238000000     4.063000000     3.116000000
C    -1.226000000     3.912000000     2.610000000
C    -1.185000000     4.379000000     1.294000000
H    -2.067000000     4.587000000     0.694000000
C     0.007000000     4.825000000     0.658000000
O    -0.203000000     5.103000000    -0.686000000
C     0.316000000     4.150000000    -1.690000000
C    -0.637000000     3.894000000    -2.854000000
C    -0.176000000     3.576000000    -4.155000000
H     0.867000000     3.435000000    -4.426000000
C    -2.002000000     3.906000000    -2.579000000
H    -2.351000000     4.248000000    -1.608000000
O     1.640000000     4.463000000    -2.111000000
H     0.341000000     3.179000000    -1.173000000
C     1.220000000     4.675000000     1.348000000
C     2.579000000     5.090000000     0.690000000
H     3.350000000     5.375000000     1.409000000
H     2.373000000     6.032000000     0.179000000
C     3.213000000     3.967000000    -0.224000000
C     4.146000000     3.037000000     0.342000000
H     4.481000000     3.149000000     1.370000000
C     2.707000000     3.743000000    -1.551000000
C     3.070000000     2.571000000    -2.206000000
H     2.632000000     2.353000000    -3.177000000
C     3.886000000     1.608000000    -1.629000000
O     4.091000000     0.446000000    -2.378000000
C     3.523000000    -0.732000000    -1.843000000
C     2.915000000    -1.584000000    -2.931000000
C     2.633000000    -1.110000000    -4.280000000
H     3.080000000    -0.157000000    -4.553000000
C     2.371000000    -2.785000000    -2.610000000
H     2.540000000    -3.189000000    -1.616000000
O     4.434000000    -1.477000000    -1.031000000
H     2.704000000    -0.394000000    -1.191000000
C     4.522000000     1.886000000    -0.398000000
C     5.483000000     0.930000000     0.250000000
H     6.173000000     1.430000000     0.934000000
H     6.166000000     0.560000000    -0.517000000
C     4.791000000    -0.199000000     0.990000000
C     4.344000000    -1.369000000     0.319000000
C     3.635000000    -2.314000000     0.972000000
H     3.369000000    -3.246000000     0.479000000
C     3.384000000    -2.182000000     2.350000000
O     2.716000000    -3.195000000     2.916000000
C     1.283000000    -3.040000000     3.037000000
H     1.035000000    -2.424000000     2.160000000
C     0.563000000    -4.330000000     2.816000000
C    -0.699000000    -4.588000000     3.348000000
H    -1.125000000    -3.837000000     4.009000000
C     1.147000000    -5.307000000     2.045000000
H     2.096000000    -5.140000000     1.543000000
C     0.493000000    -6.506000000     1.823000000
O     1.110000000    -7.451000000     0.986000000
C    -0.731000000    -6.716000000     2.417000000
H    -1.067000000    -7.744000000     2.310000000
C    -1.367000000    -5.759000000     3.133000000
O    -2.560000000    -5.915000000     3.616000000
C    -3.509000000    -4.903000000     3.694000000
C    -3.816000000    -4.096000000     2.561000000
H    -3.441000000    -4.350000000     1.572000000
C    -4.068000000    -4.572000000     4.911000000
H    -3.952000000    -5.132000000     5.836000000
C    -4.929000000    -3.476000000     5.058000000
H    -5.474000000    -3.199000000     5.957000000
C    -5.224000000    -2.647000000     3.952000000
H    -5.990000000    -1.881000000     4.038000000
C    -4.681000000    -3.048000000     2.694000000
O    -4.698000000    -2.157000000     1.567000000
C    -4.769000000    -0.787000000     1.743000000
C    -5.677000000    -0.094000000     0.936000000
H    -6.398000000    -0.592000000     0.293000000
C    -5.639000000     1.326000000     0.965000000
O    -6.610000000     2.042000000     0.274000000
C    -6.209000000     3.125000000    -0.445000000
C    -5.344000000     2.965000000    -1.520000000
H    -5.058000000     2.010000000    -1.953000000
C    -6.665000000     4.448000000    -0.139000000
H    -7.410000000     4.594000000     0.638000000
C    -6.166000000     5.626000000    -0.745000000
H    -6.705000000     6.537000000    -0.499000000
C    -5.263000000     5.446000000    -1.816000000
H    -5.228000000     6.255000000    -2.541000000
C    -4.876000000     4.132000000    -2.195000000
O    -4.269000000     3.960000000    -3.400000000
C    -2.896000000     3.819000000    -3.626000000
C    -2.463000000     3.458000000    -4.852000000
H    -3.240000000     3.270000000    -5.588000000
C    -1.139000000     3.321000000    -5.147000000
O    -0.707000000     2.978000000    -6.471000000
C     0.324000000     2.131000000    -6.816000000
C     0.312000000     0.825000000    -6.261000000
H    -0.466000000     0.444000000    -5.604000000
C     1.364000000     2.546000000    -7.682000000
H     1.311000000     3.551000000    -8.093000000
C     2.396000000     1.678000000    -7.959000000
H     3.156000000     1.948000000    -8.689000000
C     2.246000000     0.386000000    -7.555000000
H     2.855000000    -0.432000000    -7.931000000
C     1.260000000    -0.054000000    -6.680000000
O     1.353000000    -1.364000000    -6.303000000
C     1.787000000    -1.814000000    -5.091000000
C     1.201000000    -2.966000000    -4.619000000
H     0.387000000    -3.409000000    -5.187000000
C     1.596000000    -3.510000000    -3.440000000
O     0.954000000    -4.664000000    -2.925000000
C     1.662000000    -5.566000000    -2.180000000
C     2.944000000    -5.993000000    -2.486000000
H     3.380000000    -5.587000000    -3.395000000
C     3.620000000    -6.902000000    -1.690000000
H     4.669000000    -7.127000000    -1.866000000
C     2.948000000    -7.413000000    -0.563000000
H     3.501000000    -8.232000000    -0.112000000
C     1.683000000    -7.021000000    -0.230000000
C     1.063000000    -6.073000000    -1.024000000
H     0.055000000    -5.798000000    -0.724000000
C    -1.263000000    -1.557000000    -1.372000000
H    -1.275000000    -2.583000000    -1.730000000
C    -0.242000000    -1.094000000    -0.535000000
H     0.584000000    -1.624000000    -0.068000000
C    -0.158000000     0.251000000    -0.141000000
H     0.524000000     0.539000000     0.670000000
C    -1.132000000     1.131000000    -0.571000000
H    -1.175000000     2.136000000    -0.159000000
C    -2.083000000     0.647000000    -1.468000000
H    -2.859000000     1.358000000    -1.735000000
C    -2.245000000    -0.666000000    -1.859000000
C    -3.298000000    -1.078000000    -2.884000000
O    -4.161000000    -0.333000000    -3.279000000
O    -3.254000000    -2.181000000    -3.422000000
O    -7.209000000    -5.988000000     0.752000000
H    -7.185000000    -6.700000000     0.112000000
H    -6.617000000    -5.325000000     0.395000000
O    -2.164000000     1.105000000    -8.559000000
H    -2.720000000     1.873000000    -8.692000000
H    -1.504000000     1.394000000    -7.929000000
O    -3.485000000    -7.633000000    -3.065000000
H    -2.714000000    -7.711000000    -2.503000000
H    -3.428000000    -6.748000000    -3.427000000
O    -5.308000000    -2.586000000    -5.110000000
H    -4.654000000    -2.243000000    -4.501000000
H    -6.106000000    -2.101000000    -4.903000000
O    -4.199000000     0.513000000    -5.793000000
H    -3.268000000     0.612000000    -5.989000000
H    -4.222000000     0.200000000    -4.889000000
O    -5.720000000    -5.368000000    -3.437000000
H    -4.852000000    -5.052000000    -3.688000000
H    -5.836000000    -5.061000000    -2.538000000
O    -2.753000000    -4.934000000    -3.366000000
H    -2.638000000    -4.092000000    -3.805000000
H    -2.759000000    -4.719000000    -2.433000000
O    -8.044000000    -3.049000000    -1.701000000
H    -8.503000000    -2.267000000    -1.393000000
H    -7.557000000    -2.754000000    -2.470000000
O    -1.638000000    -1.797000000    -8.381000000
H    -1.967000000    -2.199000000    -7.577000000
H    -1.861000000    -0.870000000    -8.294000000
O    -5.750000000    -5.380000000    -6.240000000
H    -6.201000000    -5.904000000    -5.578000000
H    -5.793000000    -4.484000000    -5.907000000
O    -2.736000000    -2.175000000    -6.017000000
H    -3.572000000    -2.594000000    -6.220000000
H    -2.759000000    -2.039000000    -5.070000000
O    -6.489000000     1.912000000    -5.513000000
H    -6.423000000     2.615000000    -6.159000000
H    -5.628000000     1.494000000    -5.526000000
O    -6.117000000    -3.114000000    -8.376000000
H    -6.372000000    -3.821000000    -8.970000000
H    -5.871000000    -3.559000000    -7.566000000
O    -5.711000000    -4.135000000    -0.537000000
H    -5.370000000    -3.517000000     0.110000000
H    -6.431000000    -3.667000000    -0.959000000
O    -8.392000000     2.252000000    -3.179000000
H    -8.723000000     1.366000000    -3.028000000
H    -7.752000000     2.151000000    -3.884000000
O    -8.986000000    -3.712000000    -4.938000000
H    -8.637000000    -2.839000000    -4.763000000
H    -9.464000000    -3.943000000    -4.142000000
O    -6.492000000    -0.232000000    -2.196000000
H    -5.599000000    -0.380000000    -2.506000000
H    -6.448000000     0.601000000    -1.727000000
O    -7.505000000    -1.417000000    -4.364000000
H    -7.262000000    -0.794000000    -3.679000000
H    -7.411000000    -0.925000000    -5.180000000
O    -2.898000000    -5.105000000    -0.690000000
H    -3.821000000    -4.925000000    -0.867000000
H    -2.912000000    -5.804000000    -0.035000000
