215
-1428.32502
C    -4.572000000     2.603000000     2.514000000
H    -4.140000000     3.582000000     2.322000000
C    -3.717000000     1.514000000     2.995000000
C    -4.327000000     0.266000000     3.113000000
H    -3.659000000    -0.470000000     3.555000000
C    -2.224000000     1.677000000     3.352000000
O    -1.984000000     3.096000000     3.429000000
H    -1.742000000     1.165000000     2.505000000
O    -1.710000000     0.974000000     4.541000000
C    -0.377000000     0.504000000     4.447000000
C    -0.305000000    -0.878000000     4.295000000
H    -1.194000000    -1.438000000     4.015000000
C     0.922000000    -1.514000000     4.238000000
O     0.978000000    -2.804000000     3.866000000
C     2.072000000    -0.753000000     4.458000000
C     3.480000000    -1.274000000     4.203000000
H     4.205000000    -0.719000000     4.801000000
C     3.818000000    -1.347000000     2.732000000
C     4.600000000    -0.395000000     2.164000000
H     4.788000000     0.541000000     2.684000000
H     3.469000000    -2.306000000     4.559000000
C     2.000000000     0.655000000     4.713000000
H     2.922000000     1.199000000     4.902000000
C     0.703000000     1.261000000     4.677000000
C     0.612000000     2.704000000     4.882000000
H     1.486000000     3.114000000     5.392000000
H    -0.236000000     2.862000000     5.552000000
C     0.376000000     3.376000000     3.487000000
C     1.534000000     3.821000000     2.833000000
H     2.511000000     3.684000000     3.291000000
C    -0.836000000     3.632000000     2.952000000
C    -0.944000000     4.289000000     1.738000000
H    -1.950000000     4.414000000     1.345000000
C     0.185000000     4.619000000     1.027000000
O     0.024000000     5.082000000    -0.259000000
C     0.384000000     4.188000000    -1.320000000
C    -0.781000000     4.175000000    -2.393000000
C    -0.570000000     3.718000000    -3.690000000
H     0.471000000     3.532000000    -3.941000000
C    -2.105000000     4.234000000    -1.963000000
H    -2.420000000     4.531000000    -0.966000000
O     1.689000000     4.296000000    -1.892000000
H     0.245000000     3.151000000    -0.978000000
C     1.448000000     4.470000000     1.557000000
C     2.656000000     4.846000000     0.747000000
H     3.497000000     5.177000000     1.359000000
H     2.461000000     5.743000000     0.156000000
C     3.102000000     3.653000000    -0.090000000
C     4.154000000     2.835000000     0.359000000
H     4.633000000     2.989000000     1.323000000
C     2.673000000     3.519000000    -1.422000000
C     2.985000000     2.374000000    -2.181000000
H     2.540000000     2.320000000    -3.171000000
C     3.911000000     1.490000000    -1.679000000
O     4.223000000     0.390000000    -2.465000000
C     3.719000000    -0.972000000    -2.015000000
C     3.239000000    -1.816000000    -3.167000000
C     2.452000000    -1.238000000    -4.221000000
H     2.247000000    -0.173000000    -4.146000000
C     3.439000000    -3.212000000    -3.207000000
H     4.027000000    -3.725000000    -2.451000000
O     4.748000000    -1.658000000    -1.303000000
H     2.863000000    -0.764000000    -1.356000000
C     4.528000000     1.769000000    -0.413000000
C     5.596000000     0.873000000     0.167000000
H     6.172000000     1.406000000     0.926000000
H     6.346000000     0.647000000    -0.594000000
C     4.989000000    -0.400000000     0.823000000
C     4.619000000    -1.556000000     0.061000000
C     3.918000000    -2.580000000     0.675000000
H     3.566000000    -3.324000000    -0.035000000
C     3.492000000    -2.491000000     1.975000000
O     2.586000000    -3.452000000     2.419000000
C     1.290000000    -3.074000000     2.434000000
H     1.181000000    -2.138000000     1.866000000
C     0.326000000    -4.033000000     1.735000000
C    -0.972000000    -3.616000000     1.457000000
H    -1.276000000    -2.586000000     1.621000000
C     0.765000000    -5.257000000     1.215000000
H     1.832000000    -5.460000000     1.261000000
C    -0.083000000    -6.059000000     0.400000000
O     0.488000000    -7.215000000    -0.196000000
C    -1.387000000    -5.739000000     0.330000000
H    -2.049000000    -6.428000000    -0.187000000
C    -1.807000000    -4.496000000     0.833000000
O    -3.089000000    -4.142000000     0.662000000
C    -3.878000000    -3.828000000     1.761000000
C    -4.661000000    -2.642000000     1.785000000
H    -4.687000000    -1.947000000     0.950000000
C    -4.004000000    -4.743000000     2.804000000
H    -3.537000000    -5.724000000     2.763000000
C    -4.774000000    -4.466000000     3.947000000
H    -4.823000000    -5.138000000     4.800000000
C    -5.391000000    -3.247000000     4.062000000
H    -5.791000000    -3.003000000     5.043000000
C    -5.464000000    -2.448000000     2.952000000
O    -6.164000000    -1.250000000     3.071000000
C    -5.662000000     0.071000000     2.779000000
C    -6.439000000     1.079000000     2.378000000
H    -7.461000000     0.864000000     2.077000000
C    -5.936000000     2.374000000     2.303000000
O    -6.659000000     3.440000000     1.779000000
C    -6.199000000     4.250000000     0.699000000
C    -5.550000000     3.656000000    -0.341000000
H    -5.462000000     2.572000000    -0.362000000
C    -6.407000000     5.622000000     0.766000000
H    -7.123000000     6.106000000     1.425000000
C    -5.872000000     6.418000000    -0.165000000
H    -5.873000000     7.505000000    -0.165000000
C    -5.174000000     5.879000000    -1.209000000
H    -4.689000000     6.524000000    -1.938000000
C    -5.091000000     4.519000000    -1.403000000
O    -4.429000000     3.937000000    -2.486000000
C    -3.141000000     3.860000000    -2.811000000
C    -2.840000000     3.520000000    -4.136000000
H    -3.592000000     3.146000000    -4.826000000
C    -1.577000000     3.370000000    -4.528000000
O    -1.277000000     2.870000000    -5.803000000
C    -0.208000000     2.103000000    -6.111000000
C    -0.269000000     0.733000000    -5.863000000
H    -1.056000000     0.298000000    -5.252000000
C     0.850000000     2.581000000    -6.852000000
H     0.807000000     3.578000000    -7.283000000
C     1.871000000     1.749000000    -7.312000000
H     2.681000000     2.124000000    -7.933000000
C     1.813000000     0.384000000    -7.028000000
H     2.515000000    -0.343000000    -7.428000000
C     0.769000000    -0.097000000    -6.250000000
O     0.714000000    -1.473000000    -5.903000000
C     1.702000000    -2.057000000    -5.044000000
C     1.838000000    -3.407000000    -4.958000000
H     1.290000000    -4.091000000    -5.602000000
C     2.678000000    -3.970000000    -4.073000000
O     2.793000000    -5.357000000    -4.013000000
C     2.753000000    -6.135000000    -2.841000000
C     3.847000000    -6.930000000    -2.550000000
H     4.710000000    -6.888000000    -3.209000000
C     3.787000000    -7.807000000    -1.462000000
H     4.660000000    -8.393000000    -1.187000000
C     2.633000000    -7.881000000    -0.668000000
H     2.664000000    -8.506000000     0.221000000
C     1.558000000    -7.068000000    -0.984000000
C     1.608000000    -6.256000000    -2.145000000
H     0.837000000    -5.552000000    -2.448000000
C    -0.902000000    -1.211000000    -2.002000000
H    -0.749000000    -2.027000000    -2.703000000
C     0.088000000    -1.020000000    -1.056000000
H     0.890000000    -1.753000000    -1.048000000
C    -0.009000000     0.078000000    -0.221000000
H     0.686000000     0.144000000     0.538000000
C    -1.131000000     0.964000000    -0.241000000
H    -1.235000000     1.768000000     0.483000000
C    -2.145000000     0.679000000    -1.136000000
H    -2.979000000     1.376000000    -1.153000000
C    -2.051000000    -0.341000000    -2.068000000
C    -3.160000000    -0.501000000    -3.112000000
O    -3.961000000     0.381000000    -3.216000000
O    -3.328000000    -1.612000000    -3.662000000
O    -8.297000000     2.569000000    -2.374000000
H    -8.721000000     2.097000000    -3.090000000
H    -7.522000000     2.046000000    -2.168000000
O    -3.771000000     0.814000000    -8.042000000
H    -3.502000000     1.695000000    -7.782000000
H    -4.038000000     0.394000000    -7.224000000
O    -0.992000000    -6.826000000    -4.302000000
H    -1.637000000    -7.460000000    -3.989000000
H    -1.419000000    -5.976000000    -4.192000000
O    -5.593000000    -4.613000000    -4.718000000
H    -5.247000000    -4.590000000    -3.825000000
H    -6.524000000    -4.415000000    -4.619000000
O    -5.159000000     0.423000000    -5.655000000
H    -5.002000000    -0.521000000    -5.683000000
H    -4.779000000     0.705000000    -4.823000000
O    -3.159000000    -4.569000000    -3.329000000
H    -2.799000000    -3.695000000    -3.478000000
H    -3.761000000    -4.458000000    -2.593000000
O    -7.617000000    -2.058000000    -2.113000000
H    -8.443000000    -2.000000000    -1.634000000
H    -7.751000000    -2.770000000    -2.739000000
O    -1.780000000    -2.478000000    -7.269000000
H    -2.687000000    -2.303000000    -7.016000000
H    -1.256000000    -2.047000000    -6.593000000
O    -3.715000000    -5.751000000    -6.246000000
H    -3.782000000    -6.669000000    -5.981000000
H    -4.363000000    -5.298000000    -5.707000000
O    -4.138000000    -2.210000000    -6.047000000
H    -4.703000000    -2.972000000    -5.920000000
H    -3.754000000    -2.050000000    -5.185000000
O    -7.403000000     1.961000000    -6.058000000
H    -7.326000000     2.903000000    -6.208000000
H    -6.501000000     1.663000000    -5.939000000
O    -8.327000000    -1.249000000    -6.629000000
H    -8.036000000    -1.596000000    -7.472000000
H    -7.798000000    -0.463000000    -6.497000000
O    -7.379000000    -5.361000000    -0.600000000
H    -7.053000000    -5.042000000    -1.441000000
H    -6.819000000    -6.109000000    -0.394000000
O    -3.690000000     3.403000000    -7.530000000
H    -4.446000000     3.990000000    -7.509000000
H    -3.099000000     3.749000000    -6.862000000
O    -6.147000000    -2.924000000    -8.636000000
H    -5.404000000    -3.528000000    -8.643000000
H    -5.748000000    -2.054000000    -8.631000000
O    -4.988000000    -3.046000000    -1.803000000
H    -4.624000000    -2.331000000    -2.325000000
H    -5.871000000    -2.753000000    -1.578000000
O    -6.266000000     0.423000000    -1.842000000
H    -5.425000000     0.280000000    -2.276000000
H    -6.656000000    -0.449000000    -1.782000000
O    -8.425000000    -3.613000000    -4.515000000
H    -8.606000000    -2.692000000    -4.703000000
H    -9.275000000    -4.045000000    -4.594000000
O    -4.577000000    -6.209000000    -1.137000000
H    -4.736000000    -6.801000000    -0.402000000
H    -4.105000000    -5.471000000    -0.753000000
