215
-1458.53992
C    -3.822000000     2.753000000     2.234000000
H    -3.602000000     3.794000000     2.454000000
C    -2.964000000     1.697000000     2.627000000
C    -3.329000000     0.369000000     2.446000000
H    -2.620000000    -0.452000000     2.517000000
C    -1.608000000     2.008000000     3.221000000
O    -1.403000000     3.398000000     3.451000000
H    -0.847000000     1.582000000     2.551000000
O    -1.411000000     1.484000000     4.511000000
C    -0.276000000     0.707000000     4.673000000
C    -0.352000000    -0.678000000     4.509000000
H    -1.319000000    -1.174000000     4.519000000
C     0.855000000    -1.451000000     4.379000000
O     0.789000000    -2.780000000     4.041000000
C     2.057000000    -0.771000000     4.308000000
C     3.409000000    -1.505000000     4.028000000
H     4.229000000    -0.993000000     4.538000000
C     3.695000000    -1.599000000     2.545000000
C     4.487000000    -0.654000000     1.893000000
H     4.840000000     0.246000000     2.391000000
H     3.484000000    -2.524000000     4.414000000
C     2.113000000     0.609000000     4.364000000
H     3.017000000     1.151000000     4.100000000
C     0.977000000     1.377000000     4.654000000
C     1.124000000     2.926000000     4.757000000
H     2.051000000     3.080000000     5.314000000
H     0.291000000     3.276000000     5.370000000
C     1.021000000     3.629000000     3.401000000
C     2.150000000     4.049000000     2.727000000
H     3.147000000     3.971000000     3.153000000
C    -0.287000000     3.882000000     2.847000000
C    -0.419000000     4.467000000     1.544000000
H    -1.386000000     4.662000000     1.088000000
C     0.718000000     4.806000000     0.848000000
O     0.591000000     5.070000000    -0.494000000
C     0.611000000     4.025000000    -1.491000000
C    -0.568000000     4.159000000    -2.473000000
C    -0.641000000     3.273000000    -3.508000000
H     0.144000000     2.530000000    -3.625000000
C    -1.744000000     4.877000000    -2.191000000
H    -1.827000000     5.547000000    -1.338000000
O     1.890000000     4.187000000    -2.130000000
H     0.568000000     3.012000000    -1.064000000
C     2.021000000     4.603000000     1.408000000
C     3.272000000     4.759000000     0.459000000
H     4.141000000     5.028000000     1.063000000
H     3.033000000     5.611000000    -0.182000000
C     3.563000000     3.526000000    -0.440000000
C     4.427000000     2.497000000     0.000000000
H     4.779000000     2.665000000     1.015000000
C     2.908000000     3.381000000    -1.681000000
C     3.238000000     2.276000000    -2.476000000
H     2.696000000     2.175000000    -3.413000000
C     4.066000000     1.239000000    -2.000000000
O     4.124000000     0.120000000    -2.782000000
C     3.536000000    -1.136000000    -2.223000000
C     2.992000000    -2.063000000    -3.374000000
C     2.314000000    -1.423000000    -4.475000000
H     2.313000000    -0.337000000    -4.521000000
C     3.011000000    -3.452000000    -3.273000000
H     3.651000000    -3.862000000    -2.496000000
O     4.509000000    -1.876000000    -1.511000000
H     2.723000000    -0.784000000    -1.571000000
C     4.703000000     1.363000000    -0.741000000
C     5.645000000     0.281000000    -0.208000000
H     6.424000000     0.766000000     0.385000000
H     6.211000000    -0.262000000    -0.969000000
C     4.849000000    -0.819000000     0.596000000
C     4.363000000    -1.918000000    -0.136000000
C     3.581000000    -2.878000000     0.530000000
H     3.306000000    -3.802000000     0.029000000
C     3.188000000    -2.688000000     1.842000000
O     2.268000000    -3.548000000     2.450000000
C     0.969000000    -3.068000000     2.651000000
H     0.715000000    -2.141000000     2.115000000
C     0.077000000    -4.231000000     2.230000000
C    -1.187000000    -4.408000000     2.922000000
H    -1.510000000    -3.577000000     3.545000000
C     0.328000000    -5.007000000     1.119000000
H     1.227000000    -4.809000000     0.542000000
C    -0.566000000    -5.989000000     0.743000000
O    -0.413000000    -6.753000000    -0.433000000
C    -1.722000000    -6.282000000     1.487000000
H    -2.362000000    -7.032000000     1.029000000
C    -2.025000000    -5.477000000     2.614000000
O    -3.273000000    -5.539000000     3.089000000
C    -4.091000000    -4.454000000     3.278000000
C    -4.206000000    -3.440000000     2.359000000
H    -3.733000000    -3.493000000     1.382000000
C    -4.785000000    -4.345000000     4.498000000
H    -4.755000000    -5.165000000     5.212000000
C    -5.566000000    -3.234000000     4.719000000
H    -6.198000000    -3.008000000     5.574000000
C    -5.672000000    -2.207000000     3.751000000
H    -6.373000000    -1.393000000     3.913000000
C    -4.999000000    -2.288000000     2.535000000
O    -4.943000000    -1.297000000     1.583000000
C    -4.576000000     0.035000000     1.860000000
C    -5.444000000     1.111000000     1.469000000
H    -6.387000000     0.937000000     0.956000000
C    -5.108000000     2.419000000     1.757000000
O    -6.051000000     3.381000000     1.333000000
C    -5.639000000     4.457000000     0.661000000
C    -4.821000000     4.406000000    -0.484000000
H    -4.369000000     3.460000000    -0.769000000
C    -6.087000000     5.715000000     1.100000000
H    -6.815000000     5.639000000     1.903000000
C    -5.846000000     6.899000000     0.370000000
H    -6.148000000     7.896000000     0.680000000
C    -5.159000000     6.712000000    -0.890000000
H    -5.028000000     7.540000000    -1.582000000
C    -4.617000000     5.554000000    -1.292000000
O    -4.042000000     5.459000000    -2.605000000
C    -2.932000000     4.726000000    -2.904000000
C    -2.914000000     3.721000000    -3.855000000
H    -3.832000000     3.553000000    -4.411000000
C    -1.843000000     2.956000000    -4.118000000
O    -1.852000000     1.921000000    -5.033000000
C    -0.830000000     1.428000000    -5.694000000
C    -0.454000000     0.055000000    -5.664000000
H    -0.747000000    -0.605000000    -4.851000000
C    -0.210000000     2.180000000    -6.708000000
H    -0.491000000     3.230000000    -6.735000000
C     0.627000000     1.643000000    -7.659000000
H     0.963000000     2.230000000    -8.511000000
C     0.998000000     0.328000000    -7.553000000
H     1.710000000    -0.078000000    -8.268000000
C     0.485000000    -0.447000000    -6.547000000
O     0.890000000    -1.740000000    -6.494000000
C     1.640000000    -2.240000000    -5.391000000
C     1.697000000    -3.599000000    -5.283000000
H     1.132000000    -4.164000000    -6.019000000
C     2.427000000    -4.207000000    -4.244000000
O     2.516000000    -5.590000000    -4.133000000
C     2.277000000    -6.200000000    -2.949000000
C     3.297000000    -6.931000000    -2.402000000
H     4.303000000    -6.946000000    -2.815000000
C     3.091000000    -7.570000000    -1.170000000
H     3.944000000    -8.116000000    -0.775000000
C     1.879000000    -7.514000000    -0.493000000
H     1.599000000    -8.148000000     0.344000000
C     0.821000000    -6.780000000    -1.050000000
C     1.029000000    -6.095000000    -2.268000000
H     0.293000000    -5.396000000    -2.657000000
C    -0.815000000    -1.332000000    -1.881000000
H    -0.517000000    -2.182000000    -2.490000000
C     0.177000000    -0.936000000    -0.933000000
H     1.061000000    -1.568000000    -0.961000000
C     0.105000000     0.232000000    -0.197000000
H     1.013000000     0.636000000     0.210000000
C    -1.068000000     0.975000000    -0.187000000
H    -1.304000000     1.890000000     0.348000000
C    -2.136000000     0.520000000    -1.032000000
H    -3.097000000     1.026000000    -0.993000000
C    -1.944000000    -0.523000000    -1.970000000
C    -3.003000000    -0.808000000    -3.048000000
O    -4.008000000    -0.110000000    -3.087000000
O    -2.839000000    -1.803000000    -3.701000000
O    -6.591000000     4.213000000    -3.699000000
H    -7.119000000     3.712000000    -4.320000000
H    -6.163000000     3.550000000    -3.158000000
O    -3.475000000     0.771000000    -7.319000000
H    -3.421000000     0.100000000    -6.639000000
H    -3.931000000     1.501000000    -6.900000000
O    -1.030000000    -6.681000000    -4.706000000
H    -1.541000000    -7.174000000    -4.063000000
H    -1.089000000    -5.772000000    -4.412000000
O    -6.898000000    -4.853000000    -2.225000000
H    -5.983000000    -4.576000000    -2.170000000
H    -7.262000000    -4.335000000    -2.943000000
O    -5.547000000     0.493000000    -5.261000000
H    -4.865000000     0.446000000    -4.591000000
H    -6.274000000    -0.013000000    -4.898000000
O    -3.513000000    -3.992000000    -2.158000000
H    -3.206000000    -3.491000000    -2.914000000
H    -4.055000000    -3.376000000    -1.666000000
O    -7.588000000    -0.871000000    -4.165000000
H    -8.419000000    -0.402000000    -4.244000000
H    -7.841000000    -1.778000000    -3.996000000
O    -1.616000000    -3.790000000    -4.821000000
H    -1.366000000    -3.293000000    -5.600000000
H    -1.983000000    -3.135000000    -4.227000000
O    -5.089000000    -2.734000000    -4.937000000
H    -4.709000000    -3.526000000    -5.318000000
H    -4.353000000    -2.298000000    -4.507000000
O    -3.167000000    -0.293000000   -10.076000000
H    -3.243000000     0.116000000    -9.215000000
H    -2.291000000    -0.054000000   -10.380000000
O    -6.944000000     2.912000000    -6.118000000
H    -6.169000000     3.431000000    -6.334000000
H    -6.600000000     2.043000000    -5.909000000
O    -1.052000000    -3.115000000    -9.087000000
H    -1.769000000    -2.480000000    -9.099000000
H    -1.248000000    -3.684000000    -8.343000000
O    -2.789000000     3.343000000    -8.434000000
H    -2.005000000     3.795000000    -8.123000000
H    -2.561000000     2.414000000    -8.397000000
O    -7.359000000    -2.600000000    -6.971000000
H    -6.884000000    -3.255000000    -7.481000000
H    -6.752000000    -2.354000000    -6.273000000
O    -6.143000000    -1.457000000    -1.853000000
H    -5.383000000    -0.959000000    -2.155000000
H    -6.697000000    -1.541000000    -2.629000000
O    -5.731000000    -5.539000000    -5.445000000
H    -6.441000000    -5.908000000    -4.920000000
H    -5.026000000    -6.183000000    -5.381000000
O    -2.989000000    -6.854000000    -2.376000000
H    -3.163000000    -5.914000000    -2.406000000
H    -3.518000000    -7.173000000    -1.645000000
O    -5.654000000     1.678000000    -2.389000000
H    -4.970000000     1.187000000    -2.845000000
H    -5.776000000     1.208000000    -1.564000000
O    -7.299000000    -3.116000000     0.094000000
H    -7.719000000    -3.713000000    -0.525000000
H    -6.812000000    -2.504000000    -0.458000000
