215
-1470.01955
C    -3.564000000     1.642000000     1.746000000
H    -3.034000000     2.376000000     1.145000000
C    -3.079000000     1.223000000     2.973000000
C    -3.661000000     0.240000000     3.788000000
H    -3.243000000     0.064000000     4.775000000
C    -1.718000000     1.681000000     3.381000000
O    -1.713000000     3.149000000     3.238000000
H    -0.923000000     1.358000000     2.693000000
O    -1.337000000     1.294000000     4.721000000
C    -0.105000000     0.766000000     4.778000000
C    -0.048000000    -0.647000000     4.693000000
H    -0.941000000    -1.267000000     4.701000000
C     1.104000000    -1.235000000     4.251000000
O     1.124000000    -2.625000000     4.032000000
C     2.300000000    -0.510000000     4.108000000
C     3.604000000    -1.228000000     3.803000000
H     4.436000000    -0.682000000     4.253000000
C     3.859000000    -1.295000000     2.341000000
C     4.611000000    -0.392000000     1.568000000
H     5.080000000     0.450000000     2.071000000
H     3.708000000    -2.243000000     4.192000000
C     2.225000000     0.838000000     4.272000000
H     3.176000000     1.361000000     4.219000000
C     1.045000000     1.476000000     4.543000000
C     0.969000000     2.962000000     4.572000000
H     1.945000000     3.333000000     4.892000000
H     0.228000000     3.252000000     5.320000000
C     0.726000000     3.557000000     3.160000000
C     1.817000000     4.052000000     2.403000000
H     2.817000000     3.812000000     2.757000000
C    -0.622000000     3.710000000     2.622000000
C    -0.767000000     4.340000000     1.382000000
H    -1.752000000     4.455000000     0.937000000
C     0.362000000     4.719000000     0.611000000
O     0.137000000     5.116000000    -0.683000000
C     0.312000000     4.171000000    -1.777000000
C    -0.787000000     4.357000000    -2.843000000
C    -0.618000000     3.817000000    -4.132000000
H     0.320000000     3.343000000    -4.410000000
C    -2.056000000     4.749000000    -2.425000000
H    -2.146000000     5.069000000    -1.390000000
O     1.593000000     4.409000000    -2.373000000
H     0.297000000     3.152000000    -1.363000000
C     1.648000000     4.632000000     1.111000000
C     2.858000000     4.917000000     0.276000000
H     3.725000000     5.274000000     0.836000000
H     2.609000000     5.754000000    -0.380000000
C     3.262000000     3.778000000    -0.674000000
C     4.118000000     2.829000000    -0.270000000
H     4.551000000     2.854000000     0.727000000
C     2.626000000     3.597000000    -1.962000000
C     2.864000000     2.480000000    -2.776000000
H     2.310000000     2.306000000    -3.695000000
C     3.741000000     1.494000000    -2.271000000
O     3.816000000     0.340000000    -3.016000000
C     3.104000000    -0.844000000    -2.480000000
C     2.445000000    -1.730000000    -3.547000000
C     1.748000000    -1.154000000    -4.625000000
H     1.697000000    -0.068000000    -4.624000000
C     2.409000000    -3.147000000    -3.522000000
H     2.861000000    -3.673000000    -2.685000000
O     4.125000000    -1.694000000    -1.816000000
H     2.351000000    -0.577000000    -1.725000000
C     4.394000000     1.665000000    -1.041000000
C     5.365000000     0.592000000    -0.520000000
H     6.154000000     1.029000000     0.096000000
H     5.836000000     0.139000000    -1.395000000
C     4.626000000    -0.486000000     0.200000000
C     4.089000000    -1.616000000    -0.425000000
C     3.406000000    -2.552000000     0.319000000
H     3.100000000    -3.486000000    -0.146000000
C     3.289000000    -2.377000000     1.654000000
O     2.506000000    -3.304000000     2.235000000
C     1.157000000    -3.046000000     2.637000000
H     0.826000000    -2.220000000     1.990000000
C     0.243000000    -4.192000000     2.433000000
C    -0.971000000    -4.244000000     3.073000000
H    -1.076000000    -3.766000000     4.043000000
C     0.462000000    -5.009000000     1.330000000
H     1.395000000    -5.060000000     0.774000000
C    -0.484000000    -5.894000000     0.951000000
O    -0.206000000    -6.772000000    -0.121000000
C    -1.673000000    -6.066000000     1.647000000
H    -2.440000000    -6.815000000     1.471000000
C    -1.872000000    -5.202000000     2.745000000
O    -3.023000000    -5.369000000     3.576000000
C    -3.605000000    -4.470000000     4.421000000
C    -4.040000000    -3.333000000     3.836000000
H    -3.863000000    -3.104000000     2.788000000
C    -3.690000000    -4.638000000     5.849000000
H    -3.200000000    -5.504000000     6.285000000
C    -4.321000000    -3.663000000     6.612000000
H    -4.448000000    -3.767000000     7.687000000
C    -4.913000000    -2.599000000     6.006000000
H    -5.605000000    -1.944000000     6.530000000
C    -4.722000000    -2.405000000     4.609000000
O    -5.424000000    -1.389000000     3.962000000
C    -4.816000000    -0.375000000     3.297000000
C    -5.378000000     0.085000000     2.044000000
H    -6.208000000    -0.464000000     1.608000000
C    -4.804000000     1.146000000     1.367000000
O    -5.379000000     1.651000000     0.242000000
C    -5.290000000     3.020000000    -0.066000000
C    -4.967000000     3.385000000    -1.335000000
H    -4.793000000     2.636000000    -2.103000000
C    -5.510000000     4.017000000     0.893000000
H    -5.779000000     3.796000000     1.923000000
C    -5.228000000     5.350000000     0.612000000
H    -5.352000000     6.047000000     1.438000000
C    -4.839000000     5.665000000    -0.671000000
H    -4.586000000     6.695000000    -0.909000000
C    -4.775000000     4.688000000    -1.699000000
O    -4.353000000     5.011000000    -2.935000000
C    -3.121000000     4.652000000    -3.362000000
C    -2.896000000     4.235000000    -4.651000000
H    -3.748000000     4.133000000    -5.318000000
C    -1.693000000     3.737000000    -5.004000000
O    -1.642000000     3.083000000    -6.205000000
C    -0.568000000     2.290000000    -6.585000000
C    -0.659000000     0.939000000    -6.344000000
H    -1.504000000     0.520000000    -5.805000000
C     0.569000000     2.828000000    -7.186000000
H     0.703000000     3.888000000    -7.390000000
C     1.642000000     1.972000000    -7.505000000
H     2.506000000     2.297000000    -8.078000000
C     1.486000000     0.608000000    -7.302000000
H     2.341000000    -0.045000000    -7.456000000
C     0.314000000     0.063000000    -6.777000000
O     0.305000000    -1.296000000    -6.505000000
C     1.112000000    -1.863000000    -5.591000000
C     1.109000000    -3.230000000    -5.569000000
H     0.467000000    -3.829000000    -6.210000000
C     1.697000000    -3.880000000    -4.493000000
O     1.544000000    -5.305000000    -4.396000000
C     1.703000000    -5.865000000    -3.113000000
C     2.843000000    -6.483000000    -2.741000000
H     3.597000000    -6.322000000    -3.508000000
C     3.078000000    -7.146000000    -1.559000000
H     4.051000000    -7.583000000    -1.351000000
C     1.977000000    -7.237000000    -0.698000000
H     1.947000000    -7.801000000     0.231000000
C     0.796000000    -6.661000000    -1.016000000
C     0.606000000    -6.052000000    -2.261000000
H    -0.395000000    -5.678000000    -2.461000000
C    -0.606000000    -1.928000000    -2.084000000
H    -0.349000000    -2.966000000    -2.283000000
C     0.123000000    -1.359000000    -1.033000000
H     0.863000000    -1.925000000    -0.473000000
C    -0.105000000     0.005000000    -0.715000000
H     0.483000000     0.541000000     0.028000000
C    -1.083000000     0.734000000    -1.437000000
H    -1.261000000     1.764000000    -1.137000000
C    -1.817000000     0.158000000    -2.475000000
H    -2.546000000     0.758000000    -3.014000000
C    -1.586000000    -1.221000000    -2.776000000
C    -2.502000000    -1.907000000    -3.745000000
O    -3.162000000    -1.170000000    -4.466000000
O    -2.628000000    -3.125000000    -3.777000000
O    -6.224000000     1.554000000    -3.942000000
H    -6.867000000     2.259000000    -4.007000000
H    -6.669000000     0.868000000    -3.445000000
O    -0.578000000    -2.293000000    -8.763000000
H    -1.037000000    -2.090000000    -7.948000000
H    -0.372000000    -1.439000000    -9.142000000
O    -2.822000000    -2.481000000    -6.978000000
H    -2.777000000    -2.129000000    -6.089000000
H    -3.550000000    -3.102000000    -6.953000000
O    -2.221000000    -7.962000000    -4.884000000
H    -2.173000000    -8.202000000    -3.958000000
H    -2.685000000    -7.125000000    -4.890000000
O    -5.263000000    -3.262000000    -4.322000000
H    -5.224000000    -2.348000000    -4.605000000
H    -4.349000000    -3.507000000    -4.179000000
O    -5.214000000    -4.037000000    -7.306000000
H    -5.437000000    -4.707000000    -6.660000000
H    -6.024000000    -3.897000000    -7.797000000
O    -2.655000000    -4.487000000    -1.376000000
H    -2.644000000    -4.129000000    -2.263000000
H    -2.479000000    -3.734000000    -0.811000000
O    -7.785000000    -0.827000000    -2.850000000
H    -8.233000000    -1.600000000    -3.194000000
H    -6.863000000    -1.082000000    -2.813000000
O    -3.106000000    -5.513000000    -4.479000000
H    -2.864000000    -4.675000000    -4.084000000
H    -4.054000000    -5.457000000    -4.597000000
O    -2.366000000    -4.607000000    -9.538000000
H    -1.789000000    -5.144000000    -8.995000000
H    -2.537000000    -3.829000000    -9.009000000
O    -4.661000000     0.687000000    -5.814000000
H    -5.274000000     1.021000000    -5.159000000
H    -4.121000000     0.056000000    -5.338000000
O    -1.628000000    -6.229000000    -7.491000000
H    -2.275000000    -6.915000000    -7.328000000
H    -1.775000000    -5.591000000    -6.792000000
O    -4.525000000    -0.822000000    -8.160000000
H    -4.035000000    -1.594000000    -7.876000000
H    -4.517000000    -0.241000000    -7.399000000
O    -6.760000000    -3.876000000    -1.624000000
H    -6.517000000    -4.092000000    -2.525000000
H    -7.076000000    -2.974000000    -1.672000000
O    -8.205000000    -3.013000000    -4.781000000
H    -8.373000000    -3.928000000    -4.559000000
H    -7.387000000    -3.033000000    -5.278000000
O    -2.992000000    -2.199000000     0.027000000
H    -2.608000000    -1.940000000     0.864000000
H    -2.652000000    -1.561000000    -0.600000000
O    -3.980000000    -6.774000000    -1.078000000
H    -3.569000000    -5.936000000    -0.865000000
H    -4.178000000    -7.167000000    -0.228000000
O    -5.143000000    -0.923000000    -2.379000000
H    -4.824000000    -0.711000000    -1.502000000
H    -4.363000000    -0.891000000    -2.932000000
O    -5.647000000    -4.010000000     0.732000000
H    -6.038000000    -3.991000000    -0.142000000
H    -4.715000000    -3.852000000     0.581000000
