215
-1467.60287
C    -3.815000000     1.484000000     2.071000000
H    -3.433000000     2.251000000     1.402000000
C    -3.110000000     1.015000000     3.113000000
C    -3.598000000    -0.149000000     3.776000000
H    -2.946000000    -0.568000000     4.538000000
C    -1.740000000     1.575000000     3.351000000
O    -1.736000000     3.049000000     3.369000000
H    -1.174000000     1.191000000     2.489000000
O    -1.163000000     1.031000000     4.565000000
C     0.156000000     0.570000000     4.510000000
C     0.451000000    -0.825000000     4.452000000
H    -0.376000000    -1.515000000     4.599000000
C     1.692000000    -1.299000000     4.091000000
O     1.882000000    -2.554000000     3.555000000
C     2.699000000    -0.398000000     3.800000000
C     4.083000000    -0.916000000     3.365000000
H     4.799000000    -0.154000000     3.678000000
C     4.281000000    -1.181000000     1.874000000
C     4.970000000    -0.229000000     1.213000000
H     5.485000000     0.528000000     1.799000000
H     4.258000000    -1.826000000     3.944000000
C     2.423000000     0.943000000     4.087000000
H     3.243000000     1.647000000     3.971000000
C     1.192000000     1.484000000     4.421000000
C     1.003000000     2.987000000     4.575000000
H     1.971000000     3.365000000     4.909000000
H     0.299000000     3.232000000     5.372000000
C     0.655000000     3.669000000     3.238000000
C     1.716000000     4.183000000     2.458000000
H     2.722000000     4.030000000     2.839000000
C    -0.642000000     3.628000000     2.703000000
C    -0.926000000     4.280000000     1.490000000
H    -1.948000000     4.262000000     1.121000000
C     0.135000000     4.903000000     0.755000000
O    -0.121000000     5.406000000    -0.496000000
C     0.133000000     4.437000000    -1.526000000
C    -1.085000000     4.352000000    -2.438000000
C    -1.099000000     3.528000000    -3.524000000
H    -0.166000000     3.063000000    -3.832000000
C    -2.359000000     4.911000000    -2.010000000
H    -2.322000000     5.689000000    -1.252000000
O     1.374000000     4.695000000    -2.275000000
H     0.232000000     3.473000000    -1.004000000
C     1.450000000     4.737000000     1.181000000
C     2.624000000     5.127000000     0.318000000
H     3.514000000     5.268000000     0.935000000
H     2.453000000     6.037000000    -0.260000000
C     2.965000000     4.011000000    -0.658000000
C     3.924000000     3.029000000    -0.314000000
H     4.418000000     3.081000000     0.652000000
C     2.363000000     3.880000000    -1.905000000
C     2.610000000     2.684000000    -2.634000000
H     2.012000000     2.603000000    -3.538000000
C     3.568000000     1.701000000    -2.312000000
O     3.717000000     0.601000000    -3.124000000
C     3.324000000    -0.740000000    -2.709000000
C     2.654000000    -1.619000000    -3.788000000
C     1.911000000    -0.981000000    -4.783000000
H     1.887000000     0.106000000    -4.799000000
C     2.629000000    -3.001000000    -3.694000000
H     3.169000000    -3.481000000    -2.881000000
O     4.549000000    -1.346000000    -2.259000000
H     2.616000000    -0.597000000    -1.880000000
C     4.298000000     1.948000000    -1.147000000
C     5.553000000     1.132000000    -0.785000000
H     6.266000000     1.661000000    -0.151000000
H     6.082000000     0.987000000    -1.730000000
C     5.144000000    -0.191000000    -0.127000000
C     4.578000000    -1.277000000    -0.861000000
C     3.931000000    -2.315000000    -0.232000000
H     3.570000000    -3.143000000    -0.836000000
C     3.709000000    -2.188000000     1.123000000
O     2.981000000    -3.188000000     1.624000000
C     1.664000000    -2.856000000     2.162000000
H     1.232000000    -1.976000000     1.663000000
C     0.714000000    -3.985000000     1.986000000
C    -0.448000000    -4.109000000     2.840000000
H    -0.573000000    -3.440000000     3.687000000
C     0.871000000    -4.865000000     0.956000000
H     1.722000000    -4.768000000     0.288000000
C    -0.057000000    -5.871000000     0.692000000
O     0.070000000    -6.700000000    -0.459000000
C    -1.072000000    -6.062000000     1.557000000
H    -1.740000000    -6.904000000     1.389000000
C    -1.295000000    -5.206000000     2.629000000
O    -2.520000000    -5.324000000     3.185000000
C    -3.070000000    -4.494000000     4.177000000
C    -3.947000000    -3.543000000     3.715000000
H    -4.194000000    -3.477000000     2.658000000
C    -2.807000000    -4.697000000     5.562000000
H    -2.145000000    -5.485000000     5.913000000
C    -3.519000000    -3.947000000     6.483000000
H    -3.229000000    -4.050000000     7.525000000
C    -4.391000000    -2.920000000     6.037000000
H    -4.777000000    -2.229000000     6.782000000
C    -4.567000000    -2.688000000     4.645000000
O    -5.385000000    -1.653000000     4.235000000
C    -4.796000000    -0.691000000     3.459000000
C    -5.528000000    -0.191000000     2.420000000
H    -6.461000000    -0.681000000     2.155000000
C    -5.040000000     0.909000000     1.689000000
O    -5.792000000     1.348000000     0.612000000
C    -5.913000000     2.716000000     0.405000000
C    -5.343000000     3.192000000    -0.711000000
H    -5.113000000     2.542000000    -1.551000000
C    -6.313000000     3.590000000     1.408000000
H    -6.551000000     3.126000000     2.361000000
C    -6.313000000     4.950000000     1.194000000
H    -6.725000000     5.578000000     1.980000000
C    -5.769000000     5.422000000    -0.035000000
H    -5.676000000     6.483000000    -0.252000000
C    -5.230000000     4.534000000    -0.917000000
O    -4.790000000     4.977000000    -2.136000000
C    -3.517000000     4.532000000    -2.621000000
C    -3.517000000     3.544000000    -3.561000000
H    -4.453000000     3.213000000    -4.002000000
C    -2.326000000     3.117000000    -4.120000000
O    -2.396000000     2.059000000    -4.990000000
C    -1.351000000     1.753000000    -5.835000000
C    -0.982000000     0.407000000    -5.892000000
H    -1.539000000    -0.302000000    -5.284000000
C    -0.652000000     2.753000000    -6.480000000
H    -1.061000000     3.758000000    -6.414000000
C     0.375000000     2.502000000    -7.351000000
H     0.885000000     3.282000000    -7.911000000
C     0.848000000     1.166000000    -7.395000000
H     1.698000000     0.878000000    -8.008000000
C     0.121000000     0.163000000    -6.709000000
O     0.586000000    -1.137000000    -6.716000000
C     1.243000000    -1.748000000    -5.713000000
C     1.286000000    -3.129000000    -5.664000000
H     0.817000000    -3.697000000    -6.464000000
C     1.944000000    -3.731000000    -4.664000000
O     1.794000000    -5.071000000    -4.579000000
C     2.014000000    -5.832000000    -3.428000000
C     3.031000000    -6.766000000    -3.373000000
H     3.696000000    -6.874000000    -4.226000000
C     3.132000000    -7.567000000    -2.229000000
H     3.950000000    -8.282000000    -2.189000000
C     2.149000000    -7.511000000    -1.219000000
H     2.119000000    -8.257000000    -0.428000000
C     1.105000000    -6.636000000    -1.388000000
C     1.031000000    -5.790000000    -2.505000000
H     0.212000000    -5.079000000    -2.577000000
C    -0.989000000    -1.715000000    -1.525000000
H    -0.769000000    -2.642000000    -2.046000000
C     0.058000000    -1.127000000    -0.777000000
H     1.070000000    -1.523000000    -0.772000000
C    -0.050000000     0.176000000    -0.298000000
H     0.800000000     0.707000000     0.197000000
C    -1.306000000     0.763000000    -0.393000000
H    -1.503000000     1.756000000     0.002000000
C    -2.348000000     0.032000000    -0.935000000
H    -3.347000000     0.449000000    -0.833000000
C    -2.252000000    -1.147000000    -1.596000000
C    -3.456000000    -1.702000000    -2.275000000
O    -4.347000000    -0.939000000    -2.643000000
O    -3.533000000    -2.897000000    -2.381000000
O    -6.594000000     1.447000000    -5.510000000
H    -5.981000000     2.173000000    -5.622000000
H    -7.428000000     1.785000000    -5.838000000
O    -3.884000000     0.291000000    -6.998000000
H    -4.380000000    -0.100000000    -6.280000000
H    -3.397000000     1.007000000    -6.591000000
O    -2.745000000    -1.987000000    -7.966000000
H    -3.223000000    -2.607000000    -7.416000000
H    -3.064000000    -1.127000000    -7.690000000
O    -4.284000000    -3.148000000    -6.125000000
H    -4.582000000    -2.267000000    -5.898000000
H    -5.028000000    -3.714000000    -5.916000000
O    -1.720000000    -6.410000000    -5.612000000
H    -1.348000000    -6.960000000    -4.923000000
H    -1.777000000    -5.539000000    -5.218000000
O    -5.711000000    -3.700000000    -3.365000000
H    -5.121000000    -4.439000000    -3.513000000
H    -5.193000000    -3.076000000    -2.858000000
O    -6.983000000    -4.515000000    -5.646000000
H    -6.655000000    -3.972000000    -4.929000000
H    -7.858000000    -4.782000000    -5.363000000
O    -7.600000000    -4.113000000    -1.622000000
H    -8.284000000    -3.477000000    -1.829000000
H    -6.910000000    -3.940000000    -2.263000000
O    -4.381000000    -5.880000000    -0.600000000
H    -4.425000000    -5.728000000    -1.544000000
H    -3.660000000    -5.326000000    -0.301000000
O    -1.960000000    -3.976000000    -4.355000000
H    -2.573000000    -3.514000000    -3.783000000
H    -2.260000000    -3.774000000    -5.241000000
O    -5.492000000    -0.887000000    -5.116000000
H    -5.977000000    -0.070000000    -5.230000000
H    -5.388000000    -0.974000000    -4.169000000
O    -8.813000000    -1.737000000    -2.339000000
H    -7.991000000    -1.252000000    -2.277000000
H    -9.282000000    -1.323000000    -3.064000000
O    -7.977000000    -2.803000000     1.323000000
H    -7.660000000    -3.381000000     2.017000000
H    -7.678000000    -3.216000000     0.512000000
O    -8.992000000    -0.516000000    -4.939000000
H    -8.115000000    -0.148000000    -4.831000000
H    -9.519000000     0.214000000    -5.266000000
O    -3.036000000    -3.463000000     0.329000000
H    -3.419000000    -3.320000000    -0.537000000
H    -2.391000000    -2.762000000     0.424000000
O    -4.593000000    -6.514000000    -3.809000000
H    -4.174000000    -6.399000000    -4.662000000
H    -5.081000000    -7.333000000    -3.890000000
O    -9.166000000     1.991000000    -1.728000000
H    -9.835000000     1.379000000    -1.423000000
H    -8.378000000     1.456000000    -1.826000000
O    -6.663000000     0.199000000    -2.078000000
H    -6.524000000     0.363000000    -1.146000000
H    -5.912000000    -0.331000000    -2.343000000
O    -6.841000000    -5.776000000     0.372000000
H    -7.253000000    -4.983000000     0.028000000
H    -5.938000000    -5.733000000     0.057000000
