215
-1451.15288
C    -4.129000000     1.625000000     2.435000000
H    -3.829000000     2.519000000     1.893000000
C    -3.255000000     1.016000000     3.337000000
C    -3.617000000    -0.203000000     3.953000000
H    -3.052000000    -0.647000000     4.769000000
C    -1.849000000     1.625000000     3.546000000
O    -1.833000000     3.054000000     3.541000000
H    -1.237000000     1.145000000     2.769000000
O    -1.273000000     1.127000000     4.832000000
C     0.082000000     0.789000000     4.849000000
C     0.457000000    -0.496000000     4.797000000
H    -0.313000000    -1.244000000     4.970000000
C     1.711000000    -0.955000000     4.420000000
O     1.810000000    -2.310000000     4.149000000
C     2.787000000    -0.037000000     4.340000000
C     4.273000000    -0.295000000     3.955000000
H     4.976000000     0.446000000     4.341000000
C     4.494000000    -0.571000000     2.497000000
C     4.872000000     0.494000000     1.690000000
H     5.099000000     1.413000000     2.224000000
H     4.682000000    -1.209000000     4.391000000
C     2.398000000     1.309000000     4.350000000
H     3.146000000     2.076000000     4.168000000
C     1.122000000     1.765000000     4.639000000
C     0.917000000     3.329000000     4.542000000
H     1.834000000     3.848000000     4.828000000
H     0.114000000     3.580000000     5.239000000
C     0.450000000     3.734000000     3.139000000
C     1.360000000     4.384000000     2.330000000
H     2.390000000     4.417000000     2.674000000
C    -0.891000000     3.659000000     2.751000000
C    -1.310000000     4.085000000     1.525000000
H    -2.291000000     4.003000000     1.064000000
C    -0.373000000     4.676000000     0.700000000
O    -0.782000000     4.981000000    -0.584000000
C    -0.409000000     4.151000000    -1.710000000
C    -1.619000000     3.995000000    -2.671000000
C    -1.427000000     3.467000000    -3.906000000
H    -0.471000000     2.982000000    -4.088000000
C    -2.961000000     4.285000000    -2.245000000
H    -3.167000000     4.512000000    -1.202000000
O     0.795000000     4.647000000    -2.289000000
H    -0.150000000     3.149000000    -1.335000000
C     1.019000000     4.789000000     1.051000000
C     2.082000000     5.375000000     0.075000000
H     2.858000000     5.806000000     0.711000000
H     1.635000000     6.142000000    -0.562000000
C     2.664000000     4.308000000    -0.831000000
C     3.836000000     3.623000000    -0.494000000
H     4.449000000     3.876000000     0.367000000
C     1.915000000     3.942000000    -1.961000000
C     2.260000000     2.881000000    -2.723000000
H     1.744000000     2.620000000    -3.643000000
C     3.356000000     2.075000000    -2.304000000
O     3.525000000     0.858000000    -2.881000000
C     3.262000000    -0.417000000    -2.269000000
C     2.577000000    -1.442000000    -3.202000000
C     1.379000000    -1.053000000    -3.850000000
H     0.915000000    -0.100000000    -3.607000000
C     3.017000000    -2.771000000    -3.249000000
H     3.831000000    -3.198000000    -2.670000000
O     4.541000000    -0.955000000    -1.733000000
H     2.636000000    -0.296000000    -1.373000000
C     4.136000000     2.472000000    -1.189000000
C     5.293000000     1.581000000    -0.629000000
H     6.064000000     2.124000000    -0.077000000
H     5.870000000     1.309000000    -1.516000000
C     4.911000000     0.417000000     0.294000000
C     4.634000000    -0.819000000    -0.319000000
C     4.346000000    -1.923000000     0.538000000
H     4.169000000    -2.893000000     0.080000000
C     4.232000000    -1.765000000     1.910000000
O     3.590000000    -2.712000000     2.616000000
C     2.116000000    -2.543000000     2.786000000
H     1.782000000    -1.711000000     2.149000000
C     1.376000000    -3.731000000     2.175000000
C     0.006000000    -3.846000000     2.473000000
H    -0.450000000    -3.151000000     3.174000000
C     1.963000000    -4.701000000     1.348000000
H     3.030000000    -4.682000000     1.139000000
C     1.138000000    -5.733000000     0.751000000
O     1.736000000    -6.861000000     0.170000000
C    -0.220000000    -5.763000000     0.989000000
H    -0.815000000    -6.486000000     0.438000000
C    -0.820000000    -4.800000000     1.820000000
O    -2.216000000    -4.713000000     1.863000000
C    -3.041000000    -4.517000000     2.902000000
C    -3.748000000    -3.355000000     2.941000000
H    -3.638000000    -2.551000000     2.218000000
C    -3.103000000    -5.491000000     3.922000000
H    -2.462000000    -6.364000000     3.822000000
C    -3.889000000    -5.263000000     5.047000000
H    -4.031000000    -6.008000000     5.825000000
C    -4.665000000    -4.042000000     5.127000000
H    -5.234000000    -3.823000000     6.026000000
C    -4.550000000    -3.144000000     4.069000000
O    -5.274000000    -1.966000000     4.201000000
C    -4.872000000    -0.766000000     3.646000000
C    -5.683000000    -0.240000000     2.645000000
H    -6.590000000    -0.820000000     2.496000000
C    -5.336000000     0.975000000     2.107000000
O    -6.213000000     1.537000000     1.138000000
C    -6.200000000     2.767000000     0.571000000
C    -5.913000000     2.904000000    -0.791000000
H    -5.683000000     1.987000000    -1.328000000
C    -6.334000000     3.985000000     1.314000000
H    -6.609000000     4.018000000     2.365000000
C    -6.173000000     5.219000000     0.721000000
H    -6.399000000     6.118000000     1.289000000
C    -5.840000000     5.317000000    -0.610000000
H    -5.738000000     6.326000000    -1.002000000
C    -5.720000000     4.159000000    -1.370000000
O    -5.409000000     4.234000000    -2.757000000
C    -4.067000000     4.047000000    -3.152000000
C    -3.751000000     3.622000000    -4.442000000
H    -4.550000000     3.444000000    -5.158000000
C    -2.485000000     3.302000000    -4.827000000
O    -2.271000000     2.865000000    -6.123000000
C    -1.467000000     1.786000000    -6.448000000
C    -1.454000000     0.655000000    -5.604000000
H    -1.945000000     0.591000000    -4.636000000
C    -0.663000000     1.847000000    -7.621000000
H    -0.604000000     2.762000000    -8.205000000
C     0.046000000     0.714000000    -8.003000000
H     0.480000000     0.721000000    -8.999000000
C     0.121000000    -0.391000000    -7.151000000
H     0.662000000    -1.246000000    -7.547000000
C    -0.565000000    -0.390000000    -5.953000000
O    -0.471000000    -1.517000000    -5.217000000
C     0.730000000    -1.966000000    -4.645000000
C     1.183000000    -3.266000000    -4.726000000
H     0.568000000    -3.983000000    -5.264000000
C     2.285000000    -3.677000000    -4.027000000
O     2.721000000    -4.952000000    -4.185000000
C     3.048000000    -5.842000000    -3.179000000
C     4.076000000    -6.795000000    -3.371000000
H     4.686000000    -6.836000000    -4.269000000
C     4.276000000    -7.752000000    -2.434000000
H     4.975000000    -8.578000000    -2.541000000
C     3.551000000    -7.751000000    -1.225000000
H     3.659000000    -8.507000000    -0.451000000
C     2.605000000    -6.782000000    -0.964000000
C     2.388000000    -5.752000000    -1.949000000
H     1.660000000    -4.976000000    -1.729000000
C    -0.435000000    -1.721000000    -1.208000000
H    -0.286000000    -2.739000000    -1.559000000
C     0.476000000    -1.079000000    -0.352000000
H     1.398000000    -1.565000000    -0.046000000
C     0.208000000     0.240000000     0.075000000
H     0.943000000     0.829000000     0.645000000
C    -1.025000000     0.811000000    -0.217000000
H    -1.240000000     1.853000000     0.004000000
C    -1.930000000     0.148000000    -0.985000000
H    -2.846000000     0.643000000    -1.297000000
C    -1.673000000    -1.125000000    -1.536000000
C    -2.837000000    -1.840000000    -2.262000000
O    -3.944000000    -1.351000000    -2.303000000
O    -2.588000000    -2.934000000    -2.721000000
O    -4.560000000    -2.278000000    -6.577000000
H    -5.384000000    -2.625000000    -6.235000000
H    -4.728000000    -2.136000000    -7.508000000
O    -1.048000000    -5.341000000    -6.657000000
H    -1.593000000    -4.804000000    -6.082000000
H    -1.669000000    -5.759000000    -7.254000000
O    -5.225000000    -3.386000000    -3.926000000
H    -4.690000000    -2.825000000    -3.364000000
H    -6.005000000    -2.864000000    -4.113000000
O     0.084000000    -7.902000000    -3.364000000
H     0.001000000    -8.201000000    -2.459000000
H    -0.411000000    -7.083000000    -3.392000000
O    -7.123000000    -4.466000000    -1.808000000
H    -7.948000000    -4.043000000    -2.047000000
H    -6.553000000    -3.746000000    -1.539000000
O    -7.024000000    -3.719000000     1.440000000
H    -6.754000000    -2.956000000     0.929000000
H    -7.157000000    -3.380000000     2.325000000
O    -3.295000000    -6.510000000    -4.897000000
H    -3.347000000    -6.829000000    -5.799000000
H    -3.321000000    -5.557000000    -4.979000000
O    -0.983000000    -4.990000000    -3.105000000
H    -1.484000000    -4.259000000    -2.744000000
H    -1.399000000    -5.173000000    -3.948000000
O    -5.241000000    -0.063000000    -4.406000000
H    -4.592000000    -0.251000000    -5.083000000
H    -4.781000000    -0.226000000    -3.582000000
O    -2.938000000    -8.596000000     0.093000000
H    -3.200000000    -7.759000000    -0.290000000
H    -3.227000000    -8.543000000     1.004000000
O    -6.432000000    -6.668000000    -4.573000000
H    -6.140000000    -5.756000000    -4.589000000
H    -6.852000000    -6.769000000    -3.719000000
O    -8.432000000    -1.044000000    -0.007000000
H    -9.216000000    -1.418000000     0.397000000
H    -8.412000000    -1.422000000    -0.886000000
O    -7.558000000     0.912000000    -3.776000000
H    -6.746000000     0.558000000    -4.139000000
H    -8.230000000     0.669000000    -4.413000000
O    -3.305000000    -4.828000000    -1.013000000
H    -2.972000000    -4.412000000    -0.217000000
H    -3.136000000    -4.189000000    -1.706000000
O    -4.243000000    -6.978000000    -2.337000000
H    -4.011000000    -6.733000000    -3.233000000
H    -4.103000000    -6.180000000    -1.827000000
O    -8.855000000    -2.378000000    -2.538000000
H    -8.934000000    -1.759000000    -3.264000000
H    -9.370000000    -3.137000000    -2.812000000
O    -5.824000000    -1.926000000    -0.349000000
H    -6.484000000    -1.233000000    -0.380000000
H    -5.120000000    -1.612000000    -0.916000000
O    -2.581000000    -3.730000000    -5.309000000
H    -2.599000000    -3.433000000    -4.400000000
H    -3.172000000    -3.133000000    -5.769000000
O    -5.591000000    -6.011000000     1.062000000
H    -4.683000000    -5.714000000     1.010000000
H    -6.108000000    -5.206000000     1.048000000
