215
-1455.15652
C    -4.005000000     2.355000000     1.653000000
H    -3.563000000     3.172000000     1.089000000
C    -3.274000000     1.758000000     2.626000000
C    -3.824000000     0.676000000     3.279000000
H    -3.322000000     0.207000000     4.120000000
C    -1.906000000     2.315000000     3.018000000
O    -1.833000000     3.623000000     2.518000000
H    -1.098000000     1.809000000     2.470000000
O    -1.483000000     2.341000000     4.344000000
C    -0.170000000     1.875000000     4.445000000
C     0.049000000     0.465000000     4.517000000
H    -0.798000000    -0.213000000     4.579000000
C     1.302000000    -0.025000000     4.460000000
O     1.346000000    -1.419000000     4.377000000
C     2.446000000     0.796000000     4.250000000
C     3.868000000     0.304000000     4.184000000
H     4.505000000     1.169000000     4.379000000
C     4.244000000    -0.269000000     2.851000000
C     4.881000000     0.608000000     1.990000000
H     4.873000000     1.673000000     2.208000000
H     3.929000000    -0.399000000     5.018000000
C     2.206000000     2.180000000     3.983000000
H     3.025000000     2.825000000     3.673000000
C     0.912000000     2.729000000     4.131000000
C     0.630000000     4.177000000     3.813000000
H     1.498000000     4.757000000     4.134000000
H    -0.154000000     4.414000000     4.535000000
C     0.389000000     4.325000000     2.353000000
C     1.527000000     4.568000000     1.514000000
H     2.519000000     4.522000000     1.956000000
C    -0.819000000     4.096000000     1.741000000
C    -1.081000000     4.317000000     0.442000000
H    -2.061000000     4.177000000    -0.007000000
C     0.007000000     4.688000000    -0.318000000
O    -0.114000000     4.775000000    -1.660000000
C     0.053000000     3.585000000    -2.468000000
C    -1.166000000     3.322000000    -3.349000000
C    -1.120000000     2.386000000    -4.377000000
H    -0.203000000     1.814000000    -4.491000000
C    -2.320000000     4.057000000    -3.237000000
H    -2.315000000     4.870000000    -2.516000000
O     1.305000000     3.632000000    -3.106000000
H    -0.024000000     2.707000000    -1.810000000
C     1.304000000     4.819000000     0.192000000
C     2.417000000     5.026000000    -0.831000000
H     3.249000000     5.614000000    -0.436000000
H     2.172000000     5.716000000    -1.641000000
C     2.981000000     3.732000000    -1.364000000
C     4.028000000     3.078000000    -0.655000000
H     4.433000000     3.563000000     0.229000000
C     2.445000000     3.194000000    -2.535000000
C     2.990000000     1.954000000    -3.039000000
H     2.612000000     1.425000000    -3.911000000
C     3.997000000     1.317000000    -2.334000000
O     4.212000000    -0.018000000    -2.643000000
C     3.732000000    -1.051000000    -1.793000000
C     2.988000000    -2.197000000    -2.565000000
C     1.822000000    -1.888000000    -3.302000000
H     1.548000000    -0.856000000    -3.502000000
C     3.264000000    -3.518000000    -2.301000000
H     4.134000000    -3.874000000    -1.756000000
O     4.874000000    -1.550000000    -1.115000000
H     3.065000000    -0.538000000    -1.084000000
C     4.508000000     1.868000000    -1.115000000
C     5.658000000     1.236000000    -0.338000000
H     6.108000000     2.076000000     0.196000000
H     6.358000000     0.725000000    -1.002000000
C     5.192000000     0.196000000     0.650000000
C     4.843000000    -1.117000000     0.249000000
C     4.264000000    -1.923000000     1.108000000
H     4.008000000    -2.931000000     0.794000000
C     3.955000000    -1.567000000     2.451000000
O     3.127000000    -2.315000000     3.197000000
C     1.690000000    -2.008000000     3.076000000
H     1.466000000    -1.214000000     2.348000000
C     0.872000000    -3.203000000     2.692000000
C    -0.518000000    -3.029000000     2.584000000
H    -0.981000000    -2.128000000     2.979000000
C     1.485000000    -4.385000000     2.405000000
H     2.569000000    -4.468000000     2.385000000
C     0.749000000    -5.446000000     1.956000000
O     1.371000000    -6.666000000     1.845000000
C    -0.623000000    -5.382000000     1.882000000
H    -1.111000000    -6.248000000     1.442000000
C    -1.292000000    -4.142000000     2.251000000
O    -2.657000000    -4.151000000     2.176000000
C    -3.463000000    -3.668000000     3.164000000
C    -4.114000000    -2.504000000     2.936000000
H    -3.842000000    -1.961000000     2.034000000
C    -3.643000000    -4.351000000     4.404000000
H    -3.121000000    -5.298000000     4.515000000
C    -4.536000000    -3.830000000     5.363000000
H    -4.775000000    -4.463000000     6.214000000
C    -5.112000000    -2.580000000     5.119000000
H    -5.723000000    -2.082000000     5.868000000
C    -4.913000000    -1.973000000     3.920000000
O    -5.700000000    -0.809000000     3.665000000
C    -5.096000000     0.176000000     2.916000000
C    -5.856000000     0.764000000     1.903000000
H    -6.810000000     0.322000000     1.626000000
C    -5.316000000     1.919000000     1.320000000
O    -6.045000000     2.549000000     0.344000000
C    -5.625000000     3.629000000    -0.369000000
C    -5.328000000     3.460000000    -1.688000000
H    -5.377000000     2.455000000    -2.098000000
C    -5.601000000     4.900000000     0.209000000
H    -5.766000000     4.946000000     1.282000000
C    -5.537000000     6.024000000    -0.646000000
H    -5.617000000     7.035000000    -0.253000000
C    -5.278000000     5.854000000    -2.030000000
H    -5.148000000     6.694000000    -2.708000000
C    -5.056000000     4.576000000    -2.504000000
O    -4.708000000     4.456000000    -3.785000000
C    -3.482000000     3.754000000    -3.975000000
C    -3.400000000     2.862000000    -5.015000000
H    -4.214000000     2.715000000    -5.721000000
C    -2.215000000     2.112000000    -5.186000000
O    -2.169000000     1.279000000    -6.255000000
C    -1.460000000     0.123000000    -6.343000000
C    -1.217000000    -0.731000000    -5.274000000
H    -1.751000000    -0.503000000    -4.356000000
C    -0.716000000    -0.055000000    -7.460000000
H    -0.899000000     0.644000000    -8.273000000
C     0.255000000    -1.024000000    -7.531000000
H     0.726000000    -1.225000000    -8.489000000
C     0.384000000    -2.009000000    -6.496000000
H     1.031000000    -2.880000000    -6.569000000
C    -0.390000000    -1.839000000    -5.359000000
O    -0.283000000    -2.634000000    -4.227000000
C     0.951000000    -2.864000000    -3.728000000
C     1.250000000    -4.212000000    -3.475000000
H     0.588000000    -4.995000000    -3.836000000
C     2.396000000    -4.515000000    -2.830000000
O     2.635000000    -5.933000000    -2.723000000
C     2.636000000    -6.711000000    -1.583000000
C     3.241000000    -7.992000000    -1.591000000
H     3.816000000    -8.312000000    -2.457000000
C     3.069000000    -8.856000000    -0.523000000
H     3.511000000    -9.844000000    -0.619000000
C     2.476000000    -8.426000000     0.631000000
H     2.391000000    -9.132000000     1.453000000
C     1.976000000    -7.137000000     0.657000000
C     2.076000000    -6.213000000    -0.373000000
H     1.673000000    -5.204000000    -0.372000000
C    -0.791000000    -2.331000000    -0.845000000
H    -0.600000000    -3.393000000    -0.974000000
C     0.159000000    -1.461000000    -0.287000000
H     1.122000000    -1.841000000     0.045000000
C    -0.079000000    -0.145000000    -0.075000000
H     0.650000000     0.551000000     0.290000000
C    -1.366000000     0.319000000    -0.406000000
H    -1.766000000     1.291000000    -0.130000000
C    -2.371000000    -0.555000000    -0.891000000
H    -3.389000000    -0.224000000    -1.083000000
C    -2.105000000    -1.912000000    -1.101000000
C    -3.196000000    -2.909000000    -1.487000000
O    -4.296000000    -2.486000000    -1.718000000
O    -2.920000000    -4.065000000    -1.578000000
O    -8.036000000    -4.965000000     1.604000000
H    -7.783000000    -4.083000000     1.329000000
H    -8.833000000    -4.836000000     2.118000000
O    -1.611000000    -6.091000000    -6.385000000
H    -2.076000000    -5.379000000    -5.945000000
H    -2.231000000    -6.416000000    -7.037000000
O    -3.814000000    -6.434000000    -3.806000000
H    -3.195000000    -5.731000000    -4.004000000
H    -4.584000000    -5.984000000    -3.460000000
O    -0.965000000    -8.665000000    -0.753000000
H    -1.020000000    -8.619000000     0.201000000
H    -1.062000000    -7.758000000    -1.043000000
O    -5.849000000    -2.928000000     0.402000000
H    -5.471000000    -3.783000000     0.606000000
H    -5.359000000    -2.626000000    -0.362000000
O    -5.882000000    -6.212000000    -6.205000000
H    -6.328000000    -7.056000000    -6.270000000
H    -5.832000000    -6.039000000    -5.265000000
O    -1.576000000    -6.343000000    -1.773000000
H    -2.226000000    -7.026000000    -1.934000000
H    -2.085000000    -5.533000000    -1.726000000
O     0.801000000    -7.472000000    -4.057000000
H     0.043000000    -7.133000000    -3.581000000
H     1.554000000    -7.060000000    -3.633000000
O    -5.558000000    -7.860000000    -0.374000000
H    -5.060000000    -7.188000000     0.091000000
H    -6.447000000    -7.508000000    -0.424000000
O    -4.826000000    -1.740000000    -5.398000000
H    -4.919000000    -0.852000000    -5.743000000
H    -5.089000000    -1.670000000    -4.481000000
O    -7.983000000    -2.462000000    -2.314000000
H    -8.227000000    -2.687000000    -1.416000000
H    -8.760000000    -2.034000000    -2.674000000
O    -8.578000000    -1.921000000     0.340000000
H    -8.907000000    -1.230000000     0.914000000
H    -7.627000000    -1.888000000     0.445000000
O    -6.156000000    -0.785000000    -2.977000000
H    -5.415000000    -1.335000000    -2.723000000
H    -6.928000000    -1.299000000    -2.741000000
O    -4.540000000    -5.406000000     0.149000000
H    -3.791000000    -5.088000000     0.653000000
H    -4.436000000    -5.004000000    -0.714000000
O    -5.994000000    -6.332000000     2.644000000
H    -5.289000000    -5.981000000     2.099000000
H    -6.791000000    -5.939000000     2.286000000
O    -5.713000000    -4.568000000    -3.108000000
H    -5.173000000    -3.897000000    -2.692000000
H    -6.570000000    -4.154000000    -3.215000000
O    -7.267000000     1.723000000    -3.460000000
H    -7.072000000     2.138000000    -4.300000000
H    -6.990000000     0.814000000    -3.572000000
O    -3.105000000    -4.141000000    -5.090000000
H    -3.808000000    -3.504000000    -5.222000000
H    -2.622000000    -3.811000000    -4.333000000
O    -8.281000000    -6.715000000    -0.591000000
H    -8.168000000    -5.851000000    -0.193000000
H    -9.225000000    -6.870000000    -0.563000000
