215
-1432.22259
C    -4.247000000     3.391000000     1.885000000
H    -3.852000000     4.332000000     1.510000000
C    -3.412000000     2.581000000     2.610000000
C    -3.884000000     1.395000000     3.126000000
H    -3.214000000     0.792000000     3.733000000
C    -1.958000000     2.956000000     2.725000000
O    -1.715000000     4.360000000     2.539000000
H    -1.355000000     2.405000000     1.989000000
O    -1.377000000     2.590000000     4.032000000
C    -0.153000000     1.999000000     4.040000000
C    -0.056000000     0.651000000     4.302000000
H    -0.989000000     0.155000000     4.555000000
C     1.185000000     0.011000000     4.302000000
O     1.299000000    -1.353000000     4.487000000
C     2.356000000     0.761000000     4.201000000
C     3.755000000     0.104000000     4.119000000
H     4.507000000     0.839000000     4.412000000
C     4.116000000    -0.525000000     2.803000000
C     4.751000000     0.242000000     1.804000000
H     5.142000000     1.215000000     2.092000000
H     3.795000000    -0.755000000     4.792000000
C     2.230000000     2.109000000     4.014000000
H     3.136000000     2.709000000     4.017000000
C     0.953000000     2.743000000     3.862000000
C     0.805000000     4.278000000     3.637000000
H     1.684000000     4.858000000     3.926000000
H    -0.026000000     4.568000000     4.285000000
C     0.623000000     4.638000000     2.186000000
C     1.752000000     4.667000000     1.350000000
H     2.750000000     4.667000000     1.782000000
C    -0.701000000     4.727000000     1.653000000
C    -0.863000000     4.777000000     0.282000000
H    -1.875000000     4.798000000    -0.116000000
C     0.244000000     4.686000000    -0.550000000
O    -0.032000000     4.518000000    -1.851000000
C     0.136000000     3.219000000    -2.423000000
C    -1.065000000     2.850000000    -3.252000000
C    -0.910000000     1.959000000    -4.300000000
H     0.093000000     1.590000000    -4.493000000
C    -2.316000000     3.336000000    -2.919000000
H    -2.402000000     3.937000000    -2.017000000
O     1.359000000     3.310000000    -3.216000000
H     0.277000000     2.450000000    -1.650000000
C     1.520000000     4.677000000    -0.040000000
C     2.738000000     4.616000000    -0.952000000
H     3.619000000     4.965000000    -0.409000000
H     2.632000000     5.276000000    -1.815000000
C     3.093000000     3.266000000    -1.454000000
C     4.076000000     2.561000000    -0.782000000
H     4.645000000     2.995000000     0.036000000
C     2.402000000     2.708000000    -2.576000000
C     2.782000000     1.471000000    -2.901000000
H     2.369000000     1.061000000    -3.819000000
C     3.802000000     0.750000000    -2.305000000
O     3.942000000    -0.611000000    -2.698000000
C     3.508000000    -1.638000000    -1.829000000
C     2.686000000    -2.740000000    -2.523000000
C     1.534000000    -2.397000000    -3.213000000
H     1.118000000    -1.397000000    -3.307000000
C     3.016000000    -4.072000000    -2.352000000
H     3.894000000    -4.472000000    -1.851000000
O     4.613000000    -2.159000000    -0.965000000
H     2.772000000    -1.166000000    -1.162000000
C     4.477000000     1.268000000    -1.177000000
C     5.636000000     0.541000000    -0.503000000
H     6.262000000     1.292000000    -0.017000000
H     6.258000000    -0.023000000    -1.201000000
C     4.952000000    -0.345000000     0.546000000
C     4.709000000    -1.670000000     0.314000000
C     3.998000000    -2.373000000     1.263000000
H     3.713000000    -3.375000000     0.952000000
C     3.720000000    -1.806000000     2.478000000
O     2.927000000    -2.516000000     3.335000000
C     1.539000000    -2.166000000     3.334000000
H     1.399000000    -1.427000000     2.531000000
C     0.652000000    -3.321000000     3.051000000
C    -0.671000000    -3.100000000     2.874000000
H    -1.077000000    -2.104000000     3.030000000
C     1.212000000    -4.548000000     2.560000000
H     2.227000000    -4.876000000     2.769000000
C     0.289000000    -5.545000000     2.178000000
O     0.716000000    -6.765000000     1.773000000
C    -1.035000000    -5.313000000     2.166000000
H    -1.600000000    -6.169000000     1.804000000
C    -1.560000000    -4.062000000     2.382000000
O    -2.910000000    -3.760000000     2.250000000
C    -3.614000000    -3.000000000     3.173000000
C    -4.256000000    -1.759000000     2.882000000
H    -4.125000000    -1.278000000     1.916000000
C    -3.689000000    -3.565000000     4.437000000
H    -3.284000000    -4.546000000     4.669000000
C    -4.468000000    -2.922000000     5.395000000
H    -4.501000000    -3.333000000     6.401000000
C    -5.210000000    -1.777000000     5.062000000
H    -5.837000000    -1.340000000     5.835000000
C    -5.081000000    -1.158000000     3.805000000
O    -5.781000000    -0.065000000     3.530000000
C    -5.267000000     1.032000000     2.918000000
C    -6.118000000     1.829000000     2.233000000
H    -7.180000000     1.678000000     2.055000000
C    -5.563000000     2.966000000     1.699000000
O    -6.439000000     3.803000000     1.011000000
C    -6.053000000     4.366000000    -0.213000000
C    -5.514000000     3.580000000    -1.211000000
H    -5.346000000     2.521000000    -1.034000000
C    -6.245000000     5.714000000    -0.341000000
H    -6.657000000     6.200000000     0.540000000
C    -5.691000000     6.328000000    -1.427000000
H    -5.791000000     7.405000000    -1.539000000
C    -5.074000000     5.611000000    -2.513000000
H    -4.824000000     6.066000000    -3.468000000
C    -5.011000000     4.204000000    -2.384000000
O    -4.649000000     3.459000000    -3.500000000
C    -3.389000000     2.994000000    -3.709000000
C    -3.220000000     2.147000000    -4.828000000
H    -4.016000000     1.927000000    -5.535000000
C    -2.022000000     1.618000000    -5.144000000
O    -1.717000000     1.044000000    -6.365000000
C    -0.714000000     0.059000000    -6.448000000
C    -0.822000000    -0.998000000    -5.564000000
H    -1.626000000    -0.973000000    -4.834000000
C     0.170000000    -0.002000000    -7.509000000
H     0.325000000     0.866000000    -8.144000000
C     1.037000000    -1.022000000    -7.631000000
H     1.797000000    -1.077000000    -8.406000000
C     1.032000000    -2.102000000    -6.671000000
H     1.677000000    -2.976000000    -6.725000000
C     0.030000000    -2.119000000    -5.687000000
O    -0.182000000    -3.084000000    -4.759000000
C     0.798000000    -3.421000000    -3.934000000
C     1.202000000    -4.736000000    -3.784000000
H     0.676000000    -5.533000000    -4.303000000
C     2.259000000    -5.054000000    -2.960000000
O     2.534000000    -6.357000000    -2.712000000
C     2.530000000    -6.821000000    -1.406000000
C     3.533000000    -7.715000000    -1.075000000
H     4.246000000    -8.036000000    -1.830000000
C     3.718000000    -8.134000000     0.254000000
H     4.598000000    -8.732000000     0.477000000
C     2.786000000    -7.646000000     1.226000000
H     2.818000000    -7.963000000     2.265000000
C     1.702000000    -6.979000000     0.840000000
C     1.588000000    -6.486000000    -0.451000000
H     0.769000000    -5.809000000    -0.680000000
C    -1.342000000    -1.520000000    -0.641000000
H    -1.349000000    -2.579000000    -0.883000000
C    -0.174000000    -0.905000000    -0.184000000
H     0.671000000    -1.493000000     0.162000000
C    -0.199000000     0.461000000    -0.083000000
H     0.710000000     0.879000000     0.325000000
C    -1.367000000     1.208000000    -0.423000000
H    -1.394000000     2.283000000    -0.262000000
C    -2.502000000     0.558000000    -0.842000000
H    -3.358000000     1.136000000    -1.180000000
C    -2.388000000    -0.802000000    -1.142000000
C    -3.655000000    -1.502000000    -1.654000000
O    -4.718000000    -0.900000000    -1.626000000
O    -3.592000000    -2.654000000    -1.950000000
O    -8.731000000    -2.926000000     2.011000000
H    -7.992000000    -2.605000000     1.494000000
H    -8.606000000    -2.534000000     2.875000000
O    -3.873000000    -0.837000000    -7.406000000
H    -3.299000000    -0.261000000    -6.902000000
H    -4.756000000    -0.517000000    -7.220000000
O    -2.021000000    -6.032000000    -5.082000000
H    -2.393000000    -5.220000000    -4.737000000
H    -2.702000000    -6.689000000    -4.933000000
O    -3.964000000    -8.104000000    -2.892000000
H    -3.130000000    -7.947000000    -2.448000000
H    -4.021000000    -7.408000000    -3.547000000
O    -7.211000000    -1.013000000     0.437000000
H    -6.376000000    -0.708000000     0.791000000
H    -7.021000000    -1.225000000    -0.477000000
O    -6.678000000    -4.218000000    -5.436000000
H    -7.531000000    -4.593000000    -5.656000000
H    -6.820000000    -3.771000000    -4.602000000
O    -1.742000000    -6.919000000    -1.336000000
H    -2.380000000    -6.403000000    -0.842000000
H    -1.276000000    -7.424000000    -0.670000000
O    -2.599000000    -3.545000000    -7.363000000
H    -2.995000000    -2.685000000    -7.221000000
H    -1.666000000    -3.410000000    -7.193000000
O    -8.761000000    -1.534000000    -2.170000000
H    -9.187000000    -0.987000000    -1.511000000
H    -9.455000000    -1.742000000    -2.795000000
O    -9.843000000    -0.302000000     0.306000000
H   -10.232000000    -0.136000000     1.165000000
H    -8.900000000    -0.325000000     0.471000000
O    -6.617000000     0.061000000    -3.141000000
H    -5.879000000    -0.220000000    -2.601000000
H    -7.380000000    -0.358000000    -2.743000000
O    -3.695000000    -5.113000000    -0.699000000
H    -3.061000000    -4.930000000    -0.005000000
H    -3.637000000    -4.356000000    -1.282000000
O    -6.185000000    -5.716000000     0.505000000
H    -5.431000000    -5.301000000     0.086000000
H    -6.716000000    -6.040000000    -0.223000000
O    -7.759000000    -0.580000000    -7.049000000
H    -8.162000000     0.093000000    -7.598000000
H    -7.667000000    -0.165000000    -6.191000000
O    -6.381000000    -3.161000000    -2.830000000
H    -5.583000000    -2.719000000    -2.539000000
H    -7.087000000    -2.558000000    -2.597000000
O    -4.800000000    -5.481000000    -6.774000000
H    -4.108000000    -4.916000000    -7.118000000
H    -5.322000000    -4.905000000    -6.214000000
O    -7.827000000     1.845000000    -5.009000000
H    -7.200000000     2.456000000    -5.397000000
H    -7.364000000     1.470000000    -4.261000000
O    -3.566000000    -4.510000000    -3.732000000
H    -4.523000000    -4.539000000    -3.732000000
H    -3.343000000    -3.984000000    -2.965000000
O    -8.173000000    -5.830000000    -1.571000000
H    -7.765000000    -4.984000000    -1.754000000
H    -8.998000000    -5.808000000    -2.056000000
