215
-1439.63767
C    -4.401000000     3.005000000     1.640000000
H    -4.177000000     3.865000000     1.013000000
C    -3.537000000     2.452000000     2.575000000
C    -4.013000000     1.394000000     3.371000000
H    -3.358000000     0.891000000     4.077000000
C    -2.042000000     2.890000000     2.564000000
O    -1.936000000     4.286000000     2.033000000
H    -1.529000000     2.232000000     1.847000000
O    -1.369000000     2.834000000     3.793000000
C    -0.103000000     2.269000000     3.809000000
C     0.029000000     0.930000000     4.223000000
H    -0.898000000     0.424000000     4.481000000
C     1.312000000     0.353000000     4.270000000
O     1.459000000    -1.012000000     4.420000000
C     2.467000000     1.187000000     4.046000000
C     3.827000000     0.644000000     4.049000000
H     4.563000000     1.403000000     4.322000000
C     4.234000000    -0.031000000     2.730000000
C     4.847000000     0.707000000     1.789000000
H     4.907000000     1.792000000     1.829000000
H     3.945000000    -0.061000000     4.875000000
C     2.287000000     2.513000000     3.616000000
H     3.130000000     3.127000000     3.308000000
C     1.017000000     3.065000000     3.559000000
C     0.908000000     4.559000000     3.145000000
H     1.931000000     4.929000000     3.238000000
H     0.413000000     5.248000000     3.832000000
C     0.484000000     4.658000000     1.693000000
C     1.539000000     4.801000000     0.742000000
H     2.565000000     4.803000000     1.101000000
C    -0.813000000     4.670000000     1.226000000
C    -1.026000000     4.713000000    -0.141000000
H    -2.073000000     4.684000000    -0.430000000
C    -0.033000000     4.756000000    -1.080000000
O    -0.429000000     4.518000000    -2.330000000
C    -0.019000000     3.230000000    -2.920000000
C    -1.128000000     2.724000000    -3.777000000
C    -0.857000000     2.091000000    -5.032000000
H     0.176000000     1.950000000    -5.340000000
C    -2.429000000     2.750000000    -3.305000000
H    -2.620000000     3.208000000    -2.338000000
O     1.325000000     3.308000000    -3.540000000
H     0.068000000     2.572000000    -2.043000000
C     1.283000000     4.830000000    -0.605000000
C     2.488000000     4.855000000    -1.534000000
H     3.261000000     5.460000000    -1.057000000
H     2.222000000     5.397000000    -2.444000000
C     3.082000000     3.542000000    -1.895000000
C     4.229000000     3.016000000    -1.304000000
H     4.760000000     3.590000000    -0.549000000
C     2.493000000     2.858000000    -2.987000000
C     2.876000000     1.555000000    -3.372000000
H     2.450000000     1.073000000    -4.248000000
C     3.886000000     0.957000000    -2.586000000
O     4.187000000    -0.359000000    -2.896000000
C     3.696000000    -1.311000000    -1.884000000
C     3.036000000    -2.620000000    -2.432000000
C     1.869000000    -2.378000000    -3.236000000
H     1.547000000    -1.389000000    -3.552000000
C     3.278000000    -3.877000000    -1.975000000
H     4.170000000    -4.050000000    -1.379000000
O     4.812000000    -1.628000000    -0.964000000
H     2.955000000    -0.783000000    -1.266000000
C     4.613000000     1.655000000    -1.616000000
C     5.633000000     0.986000000    -0.698000000
H     6.207000000     1.885000000    -0.461000000
H     6.272000000     0.312000000    -1.272000000
C     5.128000000     0.203000000     0.504000000
C     4.738000000    -1.156000000     0.271000000
C     4.149000000    -1.956000000     1.242000000
H     3.619000000    -2.875000000     1.005000000
C     3.871000000    -1.360000000     2.415000000
O     3.051000000    -2.131000000     3.179000000
C     1.623000000    -1.761000000     3.190000000
H     1.299000000    -1.254000000     2.269000000
C     0.651000000    -2.957000000     3.257000000
C    -0.728000000    -2.713000000     3.318000000
H    -1.231000000    -1.770000000     3.514000000
C     1.102000000    -4.188000000     2.949000000
H     2.143000000    -4.439000000     2.765000000
C     0.234000000    -5.284000000     2.768000000
O     0.675000000    -6.580000000     2.421000000
C    -1.133000000    -5.118000000     2.982000000
H    -1.869000000    -5.917000000     2.948000000
C    -1.590000000    -3.821000000     3.274000000
O    -2.908000000    -3.631000000     3.340000000
C    -3.552000000    -2.872000000     4.219000000
C    -4.436000000    -1.869000000     3.763000000
H    -4.525000000    -1.733000000     2.688000000
C    -3.274000000    -3.065000000     5.588000000
H    -2.547000000    -3.765000000     5.991000000
C    -4.092000000    -2.405000000     6.469000000
H    -4.079000000    -2.513000000     7.551000000
C    -4.960000000    -1.374000000     6.004000000
H    -5.453000000    -0.770000000     6.761000000
C    -5.099000000    -1.070000000     4.681000000
O    -5.836000000    -0.001000000     4.155000000
C    -5.312000000     0.941000000     3.272000000
C    -6.163000000     1.564000000     2.388000000
H    -7.197000000     1.234000000     2.450000000
C    -5.738000000     2.559000000     1.569000000
O    -6.620000000     3.264000000     0.780000000
C    -6.230000000     3.581000000    -0.498000000
C    -5.867000000     2.596000000    -1.413000000
H    -5.911000000     1.532000000    -1.191000000
C    -6.388000000     4.918000000    -0.939000000
H    -6.754000000     5.693000000    -0.271000000
C    -6.027000000     5.267000000    -2.240000000
H    -6.158000000     6.299000000    -2.554000000
C    -5.356000000     4.355000000    -3.060000000
H    -4.896000000     4.603000000    -4.013000000
C    -5.270000000     3.040000000    -2.635000000
O    -4.676000000     2.119000000    -3.528000000
C    -3.435000000     2.196000000    -4.055000000
C    -3.140000000     1.427000000    -5.206000000
H    -3.899000000     0.827000000    -5.703000000
C    -1.864000000     1.372000000    -5.696000000
O    -1.550000000     0.674000000    -6.832000000
C    -0.795000000    -0.390000000    -6.780000000
C    -0.778000000    -1.281000000    -5.676000000
H    -1.270000000    -1.049000000    -4.735000000
C     0.059000000    -0.657000000    -7.868000000
H     0.017000000     0.042000000    -8.698000000
C     0.821000000    -1.796000000    -7.881000000
H     1.388000000    -2.038000000    -8.777000000
C     0.792000000    -2.721000000    -6.806000000
H     1.374000000    -3.639000000    -6.816000000
C    -0.069000000    -2.524000000    -5.680000000
O     0.054000000    -3.331000000    -4.552000000
C     1.159000000    -3.504000000    -3.768000000
C     1.392000000    -4.772000000    -3.162000000
H     0.768000000    -5.615000000    -3.449000000
C     2.495000000    -4.945000000    -2.326000000
O     2.808000000    -6.195000000    -1.841000000
C     2.845000000    -6.686000000    -0.522000000
C     3.765000000    -7.690000000    -0.235000000
H     4.417000000    -8.025000000    -1.038000000
C     3.756000000    -8.194000000     1.115000000
H     4.393000000    -9.012000000     1.441000000
C     2.796000000    -7.744000000     2.031000000
H     2.598000000    -8.265000000     2.964000000
C     1.810000000    -6.859000000     1.651000000
C     1.885000000    -6.296000000     0.400000000
H     1.113000000    -5.572000000     0.149000000
C    -0.894000000    -1.971000000    -1.170000000
H    -0.676000000    -3.020000000    -1.356000000
C     0.035000000    -1.127000000    -0.486000000
H     0.981000000    -1.523000000    -0.124000000
C    -0.249000000     0.235000000    -0.197000000
H     0.510000000     0.825000000     0.295000000
C    -1.444000000     0.671000000    -0.618000000
H    -1.719000000     1.708000000    -0.440000000
C    -2.410000000    -0.185000000    -1.217000000
H    -3.356000000     0.279000000    -1.484000000
C    -2.184000000    -1.486000000    -1.570000000
C    -3.226000000    -2.360000000    -2.279000000
O    -4.309000000    -2.004000000    -2.498000000
O    -2.863000000    -3.489000000    -2.579000000
O    -4.395000000    -1.122000000    -7.913000000
H    -3.988000000    -1.795000000    -7.368000000
H    -5.065000000    -0.732000000    -7.352000000
O    -3.163000000    -5.837000000    -3.902000000
H    -2.575000000    -5.666000000    -4.638000000
H    -3.145000000    -5.030000000    -3.388000000
O    -8.057000000    -1.295000000    -3.292000000
H    -7.184000000    -1.330000000    -3.684000000
H    -8.100000000    -0.433000000    -2.879000000
O    -1.743000000    -5.343000000    -6.274000000
H    -2.460000000    -5.410000000    -6.904000000
H    -1.694000000    -4.410000000    -6.065000000
O    -8.436000000    -0.686000000     0.109000000
H    -8.979000000    -0.281000000     0.785000000
H    -8.197000000     0.038000000    -0.471000000
O    -5.766000000    -4.366000000    -5.737000000
H    -6.174000000    -3.726000000    -6.320000000
H    -6.423000000    -5.056000000    -5.640000000
O    -2.114000000    -5.444000000    -0.727000000
H    -2.315000000    -4.913000000    -1.497000000
H    -2.892000000    -5.371000000    -0.175000000
O    -1.519000000    -8.374000000    -0.154000000
H    -1.827000000    -8.567000000    -1.040000000
H    -1.351000000    -7.432000000    -0.159000000
O    -8.432000000    -3.615000000    -2.043000000
H    -8.584000000    -2.778000000    -2.481000000
H    -7.516000000    -3.822000000    -2.232000000
O    -7.738000000    -1.720000000     2.447000000
H    -7.102000000    -1.174000000     2.910000000
H    -7.627000000    -1.488000000     1.525000000
O    -5.132000000    -5.059000000     0.469000000
H    -5.753000000    -5.143000000    -0.255000000
H    -5.270000000    -4.171000000     0.800000000
O    -5.647000000    -0.515000000    -4.191000000
H    -5.281000000     0.370000000    -4.190000000
H    -5.140000000    -0.985000000    -3.529000000
O    -5.874000000    -4.268000000    -2.969000000
H    -5.767000000    -4.375000000    -3.914000000
H    -5.236000000    -3.595000000    -2.731000000
O    -5.682000000    -2.099000000    -0.198000000
H    -6.607000000    -2.066000000    -0.440000000
H    -5.221000000    -1.767000000    -0.968000000
O    -0.915000000    -7.657000000    -5.457000000
H    -0.796000000    -8.059000000    -6.318000000
H    -1.171000000    -6.755000000    -5.647000000
O    -1.979000000    -8.423000000    -2.835000000
H    -2.832000000    -7.992000000    -2.798000000
H    -1.625000000    -8.182000000    -3.691000000
O    -4.575000000    -8.158000000    -5.061000000
H    -4.187000000    -8.241000000    -5.932000000
H    -4.213000000    -7.342000000    -4.715000000
O    -3.476000000    -3.037000000    -5.595000000
H    -4.217000000    -3.641000000    -5.555000000
H    -3.191000000    -2.948000000    -4.685000000
O    -4.595000000    -7.294000000    -1.806000000
H    -4.967000000    -6.657000000    -2.417000000
H    -3.828000000    -6.854000000    -1.439000000
