215
-1426.25167
C    -3.649000000     0.601000000     2.597000000
H    -3.447000000     1.559000000     2.125000000
C    -2.644000000     0.220000000     3.435000000
C    -2.752000000    -1.130000000     4.008000000
H    -1.999000000    -1.495000000     4.701000000
C    -1.396000000     1.085000000     3.618000000
O    -1.739000000     2.464000000     3.686000000
H    -0.767000000     1.034000000     2.717000000
O    -0.599000000     0.645000000     4.786000000
C     0.733000000     0.335000000     4.612000000
C     1.097000000    -0.985000000     4.315000000
H     0.486000000    -1.884000000     4.292000000
C     2.387000000    -1.244000000     3.913000000
O     2.593000000    -2.535000000     3.493000000
C     3.337000000    -0.247000000     3.768000000
C     4.702000000    -0.506000000     3.120000000
H     5.420000000     0.277000000     3.372000000
C     4.690000000    -0.639000000     1.628000000
C     5.104000000     0.418000000     0.845000000
H     5.432000000     1.313000000     1.368000000
H     5.003000000    -1.448000000     3.583000000
C     2.964000000     1.038000000     4.045000000
H     3.667000000     1.843000000     3.846000000
C     1.653000000     1.337000000     4.392000000
C     1.180000000     2.711000000     4.585000000
H     2.025000000     3.372000000     4.790000000
H     0.529000000     2.876000000     5.446000000
C     0.547000000     3.349000000     3.356000000
C     1.388000000     3.904000000     2.411000000
H     2.466000000     3.842000000     2.532000000
C    -0.887000000     3.291000000     3.090000000
C    -1.359000000     3.918000000     1.948000000
H    -2.396000000     3.789000000     1.648000000
C    -0.545000000     4.625000000     1.133000000
O    -1.066000000     5.066000000    -0.002000000
C    -0.916000000     4.246000000    -1.214000000
C    -2.182000000     4.185000000    -1.959000000
C    -2.211000000     3.738000000    -3.327000000
H    -1.245000000     3.536000000    -3.782000000
C    -3.355000000     4.449000000    -1.397000000
H    -3.374000000     4.698000000    -0.339000000
O     0.162000000     4.634000000    -2.021000000
H    -0.797000000     3.231000000    -0.807000000
C     0.865000000     4.516000000     1.275000000
C     1.835000000     5.226000000     0.358000000
H     2.724000000     5.473000000     0.942000000
H     1.355000000     6.160000000     0.061000000
C     2.182000000     4.232000000    -0.791000000
C     3.294000000     3.532000000    -0.620000000
H     3.965000000     3.669000000     0.224000000
C     1.348000000     4.009000000    -1.889000000
C     1.679000000     3.006000000    -2.785000000
H     0.996000000     2.894000000    -3.623000000
C     2.920000000     2.360000000    -2.667000000
O     3.131000000     1.290000000    -3.445000000
C     2.679000000    -0.025000000    -2.866000000
C     1.925000000    -0.826000000    -3.951000000
C     1.040000000    -0.153000000    -4.781000000
H     0.847000000     0.898000000    -4.586000000
C     2.266000000    -2.157000000    -4.135000000
H     2.932000000    -2.636000000    -3.421000000
O     3.837000000    -0.751000000    -2.455000000
H     1.970000000     0.212000000    -2.059000000
C     3.742000000     2.609000000    -1.589000000
C     4.987000000     1.851000000    -1.328000000
H     5.741000000     2.481000000    -0.853000000
H     5.538000000     1.659000000    -2.251000000
C     4.770000000     0.553000000    -0.518000000
C     4.252000000    -0.624000000    -1.161000000
C     4.083000000    -1.821000000    -0.444000000
H     3.759000000    -2.666000000    -1.046000000
C     4.224000000    -1.766000000     0.914000000
O     3.779000000    -2.880000000     1.607000000
C     2.452000000    -2.890000000     2.155000000
H     1.838000000    -2.134000000     1.644000000
C     1.758000000    -4.202000000     1.825000000
C     0.938000000    -4.715000000     2.828000000
H     0.881000000    -4.147000000     3.753000000
C     1.813000000    -4.854000000     0.585000000
H     2.522000000    -4.424000000    -0.117000000
C     0.995000000    -5.973000000     0.298000000
O     1.039000000    -6.655000000    -0.912000000
C     0.233000000    -6.418000000     1.336000000
H    -0.364000000    -7.325000000     1.297000000
C     0.163000000    -5.814000000     2.551000000
O    -0.655000000    -6.388000000     3.548000000
C    -1.419000000    -5.633000000     4.387000000
C    -2.390000000    -4.756000000     3.893000000
H    -2.445000000    -4.531000000     2.830000000
C    -1.175000000    -5.733000000     5.745000000
H    -0.353000000    -6.315000000     6.153000000
C    -1.881000000    -4.945000000     6.676000000
H    -1.728000000    -5.147000000     7.733000000
C    -2.845000000    -4.069000000     6.184000000
H    -3.425000000    -3.453000000     6.867000000
C    -3.127000000    -3.955000000     4.844000000
O    -4.113000000    -3.093000000     4.383000000
C    -3.880000000    -1.899000000     3.757000000
C    -4.849000000    -1.419000000     2.906000000
H    -5.729000000    -2.044000000     2.775000000
C    -4.777000000    -0.188000000     2.262000000
O    -5.690000000     0.328000000     1.364000000
C    -5.964000000     1.677000000     1.187000000
C    -5.816000000     2.279000000    -0.069000000
H    -5.512000000     1.661000000    -0.911000000
C    -6.473000000     2.316000000     2.298000000
H    -6.570000000     1.794000000     3.247000000
C    -6.656000000     3.674000000     2.146000000
H    -6.938000000     4.274000000     3.007000000
C    -6.373000000     4.388000000     0.987000000
H    -6.400000000     5.473000000     0.917000000
C    -5.979000000     3.659000000    -0.117000000
O    -5.736000000     4.428000000    -1.310000000
C    -4.568000000     4.370000000    -2.078000000
C    -4.631000000     3.993000000    -3.431000000
H    -5.566000000     3.927000000    -3.982000000
C    -3.413000000     3.694000000    -3.995000000
O    -3.544000000     3.272000000    -5.291000000
C    -2.524000000     2.831000000    -6.175000000
C    -2.121000000     1.504000000    -6.075000000
H    -2.503000000     0.847000000    -5.298000000
C    -1.933000000     3.696000000    -7.100000000
H    -2.321000000     4.705000000    -7.214000000
C    -0.760000000     3.288000000    -7.703000000
H    -0.362000000     3.968000000    -8.451000000
C    -0.271000000     1.966000000    -7.526000000
H     0.668000000     1.655000000    -7.977000000
C    -0.948000000     1.051000000    -6.742000000
O    -0.481000000    -0.271000000    -6.585000000
C     0.477000000    -0.820000000    -5.827000000
C     0.748000000    -2.223000000    -5.971000000
H     0.292000000    -2.826000000    -6.753000000
C     1.564000000    -2.870000000    -5.092000000
O     1.599000000    -4.231000000    -5.077000000
C     2.054000000    -5.031000000    -4.015000000
C     3.347000000    -5.471000000    -4.128000000
H     3.942000000    -5.220000000    -5.003000000
C     3.900000000    -6.368000000    -3.242000000
H     4.849000000    -6.854000000    -3.454000000
C     3.169000000    -6.809000000    -2.158000000
H     3.563000000    -7.558000000    -1.475000000
C     1.860000000    -6.337000000    -1.961000000
C     1.314000000    -5.454000000    -2.914000000
H     0.310000000    -5.064000000    -2.765000000
C    -0.215000000    -2.316000000    -0.925000000
H     0.308000000    -3.175000000    -1.337000000
C     0.581000000    -1.234000000    -0.425000000
H     1.653000000    -1.380000000    -0.526000000
C    -0.041000000    -0.155000000     0.106000000
H     0.596000000     0.590000000     0.562000000
C    -1.468000000    -0.118000000     0.144000000
H    -1.881000000     0.803000000     0.549000000
C    -2.202000000    -1.140000000    -0.283000000
H    -3.278000000    -1.038000000    -0.170000000
C    -1.632000000    -2.291000000    -0.884000000
C    -2.433000000    -3.453000000    -1.434000000
O    -3.663000000    -3.296000000    -1.426000000
O    -1.838000000    -4.299000000    -2.064000000
O    -3.206000000    -4.668000000    -6.845000000
H    -2.727000000    -4.464000000    -6.042000000
H    -3.202000000    -3.848000000    -7.340000000
O    -3.582000000    -6.117000000     0.381000000
H    -2.827000000    -6.531000000    -0.036000000
H    -3.734000000    -5.323000000    -0.132000000
O    -6.808000000    -1.299000000    -5.259000000
H    -6.853000000    -1.550000000    -4.337000000
H    -5.886000000    -1.088000000    -5.405000000
O    -2.243000000    -4.615000000    -4.428000000
H    -1.823000000    -5.436000000    -4.685000000
H    -2.042000000    -4.524000000    -3.497000000
O    -4.974000000    -5.658000000    -3.834000000
H    -4.638000000    -6.305000000    -3.215000000
H    -4.193000000    -5.301000000    -4.255000000
O    -4.360000000     0.705000000    -3.705000000
H    -3.897000000    -0.130000000    -3.771000000
H    -3.666000000     1.357000000    -3.614000000
O    -6.965000000    -4.460000000     0.985000000
H    -7.572000000    -3.724000000     0.914000000
H    -6.683000000    -4.626000000     0.085000000
O    -4.562000000    -8.659000000     1.020000000
H    -4.428000000    -7.837000000     0.549000000
H    -3.780000000    -9.177000000     0.826000000
O    -2.769000000    -9.493000000    -1.130000000
H    -2.254000000    -8.693000000    -1.236000000
H    -2.176000000   -10.102000000    -0.690000000
O    -1.551000000    -7.014000000    -1.574000000
H    -1.751000000    -6.149000000    -1.931000000
H    -0.634000000    -6.957000000    -1.307000000
O    -7.778000000    -1.860000000    -2.497000000
H    -6.858000000    -1.712000000    -2.278000000
H    -8.224000000    -1.897000000    -1.651000000
O    -3.948000000    -2.183000000    -4.048000000
H    -3.459000000    -2.791000000    -4.603000000
H    -4.218000000    -2.709000000    -3.295000000
O    -3.811000000    -8.072000000    -3.400000000
H    -3.314000000    -8.685000000    -2.859000000
H    -3.476000000    -8.209000000    -4.286000000
O    -5.418000000    -1.301000000    -1.602000000
H    -4.845000000    -2.055000000    -1.467000000
H    -4.887000000    -0.683000000    -2.104000000
O    -6.718000000    -5.563000000    -6.048000000
H    -5.971000000    -5.679000000    -5.461000000
H    -6.609000000    -6.242000000    -6.713000000
O    -7.768000000    -6.807000000    -1.517000000
H    -8.087000000    -6.708000000    -0.619000000
H    -7.206000000    -6.045000000    -1.657000000
O    -5.894000000    -4.655000000    -1.473000000
H    -5.735000000    -5.086000000    -2.313000000
H    -5.089000000    -4.167000000    -1.298000000
O    -5.476000000    -5.619000000     2.681000000
H    -4.748000000    -6.029000000     2.214000000
H    -5.935000000    -5.111000000     2.012000000
O    -1.091000000    -7.166000000    -5.046000000
H    -1.470000000    -8.021000000    -5.248000000
H    -0.433000000    -7.028000000    -5.726000000
