215
-1450.30363
C    -4.298000000     0.919000000     2.587000000
H    -4.050000000     1.698000000     1.872000000
C    -3.373000000     0.415000000     3.565000000
C    -3.689000000    -0.767000000     4.247000000
H    -3.053000000    -1.223000000     5.001000000
C    -2.039000000     1.084000000     3.589000000
O    -2.147000000     2.505000000     3.579000000
H    -1.500000000     0.735000000     2.695000000
O    -1.342000000     0.600000000     4.723000000
C    -0.026000000     0.400000000     4.663000000
C     0.440000000    -0.932000000     4.650000000
H    -0.205000000    -1.806000000     4.669000000
C     1.778000000    -1.274000000     4.422000000
O     1.910000000    -2.532000000     3.968000000
C     2.661000000    -0.227000000     4.246000000
C     4.118000000    -0.522000000     3.832000000
H     4.783000000     0.243000000     4.239000000
C     4.271000000    -0.568000000     2.340000000
C     4.744000000     0.580000000     1.704000000
H     5.024000000     1.498000000     2.213000000
H     4.410000000    -1.458000000     4.312000000
C     2.272000000     1.087000000     4.467000000
H     3.031000000     1.862000000     4.406000000
C     0.935000000     1.408000000     4.600000000
C     0.488000000     2.858000000     4.737000000
H     1.262000000     3.505000000     5.154000000
H    -0.370000000     2.890000000     5.412000000
C     0.048000000     3.459000000     3.385000000
C     0.946000000     4.188000000     2.562000000
H     1.970000000     4.330000000     2.897000000
C    -1.251000000     3.260000000     2.839000000
C    -1.581000000     3.705000000     1.596000000
H    -2.586000000     3.495000000     1.237000000
C    -0.656000000     4.368000000     0.784000000
O    -1.126000000     4.683000000    -0.488000000
C    -0.605000000     4.008000000    -1.678000000
C    -1.741000000     3.675000000    -2.717000000
C    -1.480000000     3.631000000    -4.081000000
H    -0.458000000     3.762000000    -4.425000000
C    -2.994000000     3.319000000    -2.212000000
H    -3.150000000     3.272000000    -1.138000000
O     0.572000000     4.606000000    -2.222000000
H    -0.265000000     3.074000000    -1.205000000
C     0.611000000     4.714000000     1.314000000
C     1.736000000     5.355000000     0.381000000
H     2.544000000     5.870000000     0.904000000
H     1.254000000     6.137000000    -0.211000000
C     2.343000000     4.358000000    -0.624000000
C     3.450000000     3.655000000    -0.219000000
H     3.798000000     3.902000000     0.781000000
C     1.790000000     4.046000000    -1.888000000
C     2.303000000     2.985000000    -2.671000000
H     1.907000000     2.738000000    -3.653000000
C     3.448000000     2.307000000    -2.253000000
O     3.672000000     1.220000000    -3.060000000
C     3.266000000    -0.031000000    -2.538000000
C     2.789000000    -0.937000000    -3.657000000
C     2.192000000    -0.320000000    -4.758000000
H     2.072000000     0.758000000    -4.829000000
C     2.973000000    -2.347000000    -3.695000000
H     3.496000000    -2.779000000    -2.846000000
O     4.465000000    -0.578000000    -1.804000000
H     2.428000000     0.160000000    -1.851000000
C     4.031000000     2.622000000    -1.035000000
C     5.205000000     1.882000000    -0.380000000
H     5.737000000     2.474000000     0.368000000
H     5.912000000     1.596000000    -1.162000000
C     4.772000000     0.608000000     0.289000000
C     4.489000000    -0.550000000    -0.445000000
C     4.187000000    -1.725000000     0.264000000
H     4.045000000    -2.631000000    -0.320000000
C     4.034000000    -1.769000000     1.642000000
O     3.360000000    -2.843000000     2.214000000
C     1.987000000    -2.692000000     2.557000000
H     1.625000000    -1.800000000     2.024000000
C     1.122000000    -3.919000000     2.133000000
C     0.025000000    -4.409000000     2.877000000
H    -0.215000000    -4.047000000     3.873000000
C     1.308000000    -4.512000000     0.863000000
H     2.005000000    -3.966000000     0.232000000
C     0.482000000    -5.480000000     0.401000000
O     0.668000000    -6.118000000    -0.798000000
C    -0.524000000    -5.939000000     1.189000000
H    -1.211000000    -6.676000000     0.780000000
C    -0.789000000    -5.416000000     2.428000000
O    -1.866000000    -5.922000000     3.137000000
C    -2.567000000    -5.206000000     4.154000000
C    -3.632000000    -4.426000000     3.832000000
H    -3.944000000    -4.328000000     2.795000000
C    -2.089000000    -5.175000000     5.440000000
H    -1.229000000    -5.791000000     5.688000000
C    -2.721000000    -4.496000000     6.411000000
H    -2.308000000    -4.556000000     7.415000000
C    -3.902000000    -3.702000000     6.127000000
H    -4.362000000    -3.297000000     7.025000000
C    -4.280000000    -3.647000000     4.811000000
O    -5.231000000    -2.634000000     4.513000000
C    -4.879000000    -1.461000000     3.901000000
C    -5.839000000    -0.813000000     3.144000000
H    -6.795000000    -1.273000000     2.907000000
C    -5.532000000     0.401000000     2.477000000
O    -6.545000000     0.921000000     1.634000000
C    -6.405000000     1.925000000     0.710000000
C    -6.080000000     1.623000000    -0.621000000
H    -5.891000000     0.596000000    -0.923000000
C    -6.557000000     3.284000000     1.071000000
H    -6.918000000     3.531000000     2.066000000
C    -6.671000000     4.214000000     0.035000000
H    -7.166000000     5.169000000     0.192000000
C    -6.129000000     3.932000000    -1.151000000
H    -6.196000000     4.708000000    -1.909000000
C    -5.766000000     2.641000000    -1.520000000
O    -5.233000000     2.369000000    -2.724000000
C    -3.967000000     2.840000000    -3.103000000
C    -3.733000000     2.804000000    -4.451000000
H    -4.455000000     2.298000000    -5.086000000
C    -2.458000000     3.144000000    -4.929000000
O    -2.174000000     2.868000000    -6.192000000
C    -0.965000000     2.465000000    -6.664000000
C    -0.539000000     1.165000000    -6.596000000
H    -1.256000000     0.443000000    -6.213000000
C    -0.077000000     3.472000000    -7.117000000
H    -0.334000000     4.526000000    -7.053000000
C     1.197000000     3.081000000    -7.616000000
H     1.926000000     3.768000000    -8.038000000
C     1.507000000     1.676000000    -7.624000000
H     2.529000000     1.516000000    -7.960000000
C     0.703000000     0.720000000    -6.993000000
O     1.078000000    -0.636000000    -6.949000000
C     1.750000000    -1.098000000    -5.854000000
C     1.951000000    -2.484000000    -5.837000000
H     1.612000000    -3.095000000    -6.670000000
C     2.514000000    -3.141000000    -4.745000000
O     2.786000000    -4.509000000    -4.747000000
C     2.811000000    -5.183000000    -3.623000000
C     3.966000000    -5.849000000    -3.310000000
H     4.835000000    -5.805000000    -3.962000000
C     4.043000000    -6.527000000    -2.134000000
H     4.959000000    -7.043000000    -1.859000000
C     2.915000000    -6.703000000    -1.339000000
H     2.828000000    -7.310000000    -0.441000000
C     1.740000000    -5.965000000    -1.618000000
C     1.691000000    -5.211000000    -2.771000000
H     0.835000000    -4.566000000    -2.949000000
C    -0.393000000    -2.039000000    -1.107000000
H     0.056000000    -2.855000000    -1.666000000
C     0.476000000    -1.159000000    -0.471000000
H     1.532000000    -1.380000000    -0.341000000
C    -0.064000000     0.011000000     0.080000000
H     0.582000000     0.632000000     0.630000000
C    -1.423000000     0.318000000    -0.068000000
H    -1.892000000     1.203000000     0.355000000
C    -2.254000000    -0.571000000    -0.705000000
H    -3.311000000    -0.370000000    -0.855000000
C    -1.807000000    -1.810000000    -1.190000000
C    -2.648000000    -2.754000000    -2.005000000
O    -3.841000000    -2.904000000    -1.642000000
O    -2.266000000    -3.420000000    -2.906000000
O    -2.112000000    -2.658000000    -7.646000000
H    -1.968000000    -2.793000000    -6.710000000
H    -1.947000000    -3.514000000    -8.041000000
O    -4.581000000    -2.542000000     1.002000000
H    -3.956000000    -1.878000000     1.293000000
H    -4.172000000    -2.935000000     0.231000000
O    -5.345000000    -8.394000000     2.024000000
H    -5.154000000    -7.475000000     1.834000000
H    -6.221000000    -8.535000000     1.665000000
O    -8.097000000    -4.573000000    -2.720000000
H    -8.062000000    -4.896000000    -3.621000000
H    -7.248000000    -4.154000000    -2.582000000
O    -8.913000000    -3.027000000     0.818000000
H    -9.760000000    -2.725000000     1.145000000
H    -8.423000000    -2.223000000     0.642000000
O    -2.090000000    -4.058000000    -5.310000000
H    -1.319000000    -4.606000000    -5.455000000
H    -2.129000000    -3.945000000    -4.360000000
O    -2.910000000    -7.753000000    -4.078000000
H    -3.123000000    -8.496000000    -3.513000000
H    -2.576000000    -7.086000000    -3.479000000
O    -3.918000000    -8.462000000    -1.300000000
H    -4.875000000    -8.491000000    -1.271000000
H    -3.690000000    -7.650000000    -0.848000000
O    -4.193000000    -5.892000000     0.043000000
H    -5.002000000    -5.533000000     0.407000000
H    -3.753000000    -5.139000000    -0.351000000
O    -3.378000000    -6.070000000    -6.724000000
H    -3.524000000    -6.524000000    -5.894000000
H    -2.549000000    -5.607000000    -6.601000000
O    -2.087000000    -5.929000000    -2.315000000
H    -2.326000000    -5.054000000    -2.620000000
H    -1.539000000    -5.774000000    -1.546000000
O    -6.415000000    -4.492000000     1.555000000
H    -5.781000000    -3.779000000     1.476000000
H    -7.267000000    -4.067000000     1.456000000
O    -4.734000000    -3.303000000    -5.131000000
H    -3.806000000    -3.540000000    -5.123000000
H    -4.858000000    -2.851000000    -5.965000000
O    -6.020000000    -1.863000000    -2.499000000
H    -5.247000000    -2.302000000    -2.143000000
H    -5.963000000    -2.007000000    -3.444000000
O    -6.081000000    -7.418000000    -2.971000000
H    -6.546000000    -6.608000000    -2.760000000
H    -5.206000000    -7.131000000    -3.232000000
O    -8.354000000    -0.467000000    -1.966000000
H    -8.889000000    -1.131000000    -2.400000000
H    -7.476000000    -0.847000000    -1.938000000
O    -5.340000000    -4.666000000    -2.936000000
H    -5.169000000    -4.319000000    -3.811000000
H    -4.707000000    -4.219000000    -2.373000000
O    -0.108000000    -5.747000000    -6.055000000
H     0.307000000    -6.507000000    -5.646000000
H     0.583000000    -5.355000000    -6.589000000
O    -7.371000000    -4.934000000    -5.289000000
H    -6.451000000    -4.677000000    -5.344000000
H    -7.622000000    -5.120000000    -6.194000000
