215
-1475.82992
C    -3.787000000     0.292000000     2.775000000
H    -3.625000000     1.016000000     1.980000000
C    -2.814000000     0.001000000     3.699000000
C    -3.020000000    -1.051000000     4.542000000
H    -2.217000000    -1.274000000     5.241000000
C    -1.557000000     0.838000000     3.779000000
O    -1.951000000     2.234000000     3.746000000
H    -0.892000000     0.537000000     2.956000000
O    -0.754000000     0.580000000     4.954000000
C     0.571000000     0.501000000     4.801000000
C     0.996000000    -0.814000000     4.670000000
H     0.456000000    -1.708000000     4.974000000
C     2.251000000    -1.034000000     4.187000000
O     2.589000000    -2.251000000     3.834000000
C     3.145000000     0.075000000     3.932000000
C     4.558000000    -0.149000000     3.417000000
H     5.167000000     0.687000000     3.769000000
C     4.601000000    -0.175000000     1.840000000
C     4.811000000     1.060000000     1.179000000
H     5.071000000     1.974000000     1.706000000
H     4.943000000    -1.050000000     3.900000000
C     2.662000000     1.367000000     4.136000000
H     3.336000000     2.195000000     3.934000000
C     1.363000000     1.627000000     4.543000000
C     0.807000000     3.057000000     4.664000000
H     1.660000000     3.725000000     4.803000000
H     0.139000000     3.225000000     5.512000000
C     0.102000000     3.434000000     3.296000000
C     0.808000000     4.293000000     2.406000000
H     1.851000000     4.540000000     2.588000000
C    -1.190000000     3.056000000     2.929000000
C    -1.734000000     3.483000000     1.721000000
H    -2.735000000     3.180000000     1.425000000
C    -1.018000000     4.311000000     0.849000000
O    -1.572000000     4.582000000    -0.450000000
C    -1.087000000     3.925000000    -1.636000000
C    -2.282000000     3.620000000    -2.545000000
C    -2.182000000     3.747000000    -3.951000000
H    -1.300000000     4.179000000    -4.416000000
C    -3.418000000     3.068000000    -1.990000000
H    -3.486000000     2.961000000    -0.910000000
O     0.031000000     4.764000000    -2.230000000
H    -0.629000000     2.981000000    -1.306000000
C     0.264000000     4.766000000     1.201000000
C     1.213000000     5.569000000     0.251000000
H     1.914000000     6.150000000     0.853000000
H     0.659000000     6.289000000    -0.355000000
C     1.923000000     4.622000000    -0.732000000
C     3.150000000     4.042000000    -0.401000000
H     3.691000000     4.267000000     0.514000000
C     1.249000000     4.306000000    -1.922000000
C     1.813000000     3.370000000    -2.762000000
H     1.259000000     3.116000000    -3.662000000
C     3.029000000     2.758000000    -2.448000000
O     3.420000000     1.799000000    -3.301000000
C     3.177000000     0.376000000    -2.903000000
C     2.689000000    -0.537000000    -4.054000000
C     1.591000000    -0.152000000    -4.860000000
H     1.238000000     0.867000000    -4.723000000
C     3.054000000    -1.909000000    -4.236000000
H     3.890000000    -2.315000000    -3.672000000
O     4.435000000    -0.162000000    -2.284000000
H     2.377000000     0.438000000    -2.150000000
C     3.736000000     3.045000000    -1.310000000
C     5.111000000     2.422000000    -0.952000000
H     5.663000000     3.148000000    -0.352000000
H     5.697000000     2.305000000    -1.867000000
C     4.860000000     1.134000000    -0.227000000
C     4.608000000    -0.061000000    -0.926000000
C     4.366000000    -1.262000000    -0.239000000
H     4.176000000    -2.163000000    -0.817000000
C     4.346000000    -1.320000000     1.101000000
O     3.815000000    -2.507000000     1.732000000
C     2.476000000    -2.496000000     2.419000000
H     1.978000000    -1.605000000     2.011000000
C     1.667000000    -3.675000000     2.057000000
C     0.849000000    -4.312000000     3.010000000
H     0.762000000    -4.008000000     4.050000000
C     1.642000000    -4.057000000     0.681000000
H     2.179000000    -3.449000000    -0.043000000
C     0.864000000    -5.138000000     0.313000000
O     0.850000000    -5.557000000    -1.025000000
C     0.047000000    -5.776000000     1.246000000
H    -0.567000000    -6.641000000     1.011000000
C    -0.004000000    -5.336000000     2.585000000
O    -0.890000000    -5.935000000     3.494000000
C    -1.536000000    -5.338000000     4.599000000
C    -2.300000000    -4.171000000     4.398000000
H    -2.372000000    -3.721000000     3.411000000
C    -1.450000000    -5.989000000     5.800000000
H    -0.867000000    -6.901000000     5.900000000
C    -2.117000000    -5.453000000     6.961000000
H    -2.037000000    -5.942000000     7.929000000
C    -3.089000000    -4.451000000     6.795000000
H    -3.752000000    -4.070000000     7.567000000
C    -3.176000000    -3.873000000     5.464000000
O    -4.260000000    -3.004000000     5.269000000
C    -4.141000000    -1.888000000     4.474000000
C    -5.175000000    -1.573000000     3.602000000
H    -6.057000000    -2.206000000     3.545000000
C    -4.944000000    -0.475000000     2.717000000
O    -5.975000000    -0.171000000     1.885000000
C    -6.148000000     0.978000000     1.170000000
C    -5.776000000     0.932000000    -0.226000000
H    -5.350000000     0.044000000    -0.687000000
C    -6.768000000     2.139000000     1.663000000
H    -7.255000000     2.167000000     2.635000000
C    -6.970000000     3.285000000     0.796000000
H    -7.358000000     4.230000000     1.169000000
C    -6.617000000     3.202000000    -0.551000000
H    -6.721000000     4.015000000    -1.265000000
C    -6.051000000     2.012000000    -1.076000000
O    -5.640000000     1.999000000    -2.344000000
C    -4.518000000     2.735000000    -2.773000000
C    -4.454000000     2.964000000    -4.162000000
H    -5.276000000     2.548000000    -4.740000000
C    -3.273000000     3.344000000    -4.757000000
O    -3.075000000     3.288000000    -6.099000000
C    -2.098000000     2.441000000    -6.636000000
C    -1.676000000     1.229000000    -6.052000000
H    -2.212000000     0.797000000    -5.211000000
C    -1.363000000     2.990000000    -7.670000000
H    -1.565000000     4.001000000    -8.014000000
C    -0.289000000     2.320000000    -8.233000000
H     0.295000000     2.765000000    -9.035000000
C     0.065000000     1.079000000    -7.746000000
H     0.858000000     0.418000000    -8.087000000
C    -0.621000000     0.522000000    -6.650000000
O    -0.257000000    -0.717000000    -6.159000000
C     0.938000000    -1.066000000    -5.680000000
C     1.334000000    -2.367000000    -5.879000000
H     0.790000000    -3.014000000    -6.562000000
C     2.427000000    -2.790000000    -5.116000000
O     2.764000000    -4.061000000    -5.175000000
C     2.866000000    -4.734000000    -3.970000000
C     4.074000000    -5.394000000    -3.634000000
H     4.948000000    -5.226000000    -4.259000000
C     4.249000000    -5.979000000    -2.372000000
H     5.181000000    -6.461000000    -2.088000000
C     3.180000000    -6.044000000    -1.487000000
H     3.358000000    -6.456000000    -0.497000000
C     1.922000000    -5.500000000    -1.859000000
C     1.705000000    -4.923000000    -3.125000000
H     0.732000000    -4.578000000    -3.465000000
C    -0.396000000    -1.728000000    -1.613000000
H    -0.004000000    -2.559000000    -2.194000000
C     0.481000000    -0.971000000    -0.829000000
H     1.548000000    -1.180000000    -0.802000000
C     0.022000000     0.132000000    -0.113000000
H     0.723000000     0.781000000     0.431000000
C    -1.331000000     0.496000000    -0.251000000
H    -1.727000000     1.354000000     0.285000000
C    -2.194000000    -0.243000000    -1.038000000
H    -3.263000000    -0.069000000    -1.122000000
C    -1.774000000    -1.451000000    -1.669000000
C    -2.752000000    -2.237000000    -2.467000000
O    -3.919000000    -1.923000000    -2.605000000
O    -2.464000000    -3.391000000    -2.781000000
O    -3.247000000    -3.407000000    -7.923000000
H    -3.573000000    -3.121000000    -7.070000000
H    -2.312000000    -3.556000000    -7.785000000
O    -3.565000000    -5.495000000     0.958000000
H    -4.177000000    -5.262000000     0.261000000
H    -2.709000000    -5.509000000     0.530000000
O    -3.507000000    -8.051000000     1.566000000
H    -3.468000000    -7.120000000     1.344000000
H    -3.276000000    -8.500000000     0.753000000
O    -6.858000000    -3.993000000    -4.217000000
H    -7.079000000    -3.186000000    -4.682000000
H    -6.812000000    -3.734000000    -3.297000000
O    -6.980000000    -2.983000000     0.719000000
H    -6.821000000    -2.790000000    -0.205000000
H    -6.550000000    -2.270000000     1.190000000
O    -1.773000000    -4.709000000    -4.959000000
H    -2.082000000    -4.525000000    -4.072000000
H    -1.580000000    -3.848000000    -5.329000000
O    -4.947000000    -4.806000000    -1.440000000
H    -5.595000000    -4.125000000    -1.258000000
H    -4.445000000    -4.466000000    -2.181000000
O    -2.198000000    -8.320000000    -1.176000000
H    -1.955000000    -8.843000000    -1.940000000
H    -2.154000000    -7.414000000    -1.483000000
O    -6.161000000    -7.500000000    -1.634000000
H    -5.868000000    -6.604000000    -1.471000000
H    -6.179000000    -7.907000000    -0.768000000
O    -2.979000000    -6.736000000    -6.711000000
H    -2.456000000    -6.151000000    -6.162000000
H    -2.535000000    -7.582000000    -6.650000000
O    -1.886000000    -5.587000000    -1.516000000
H    -2.346000000    -4.793000000    -1.786000000
H    -0.960000000    -5.344000000    -1.530000000
O    -5.975000000    -5.060000000     2.288000000
H    -5.017000000    -5.059000000     2.290000000
H    -6.214000000    -4.297000000     1.762000000
O    -5.595000000    -0.255000000    -4.530000000
H    -5.095000000    -0.949000000    -4.100000000
H    -6.348000000    -0.112000000    -3.957000000
O    -6.918000000    -2.001000000    -6.246000000
H    -6.428000000    -2.130000000    -7.058000000
H    -6.396000000    -1.370000000    -5.750000000
O    -5.338000000    -0.732000000    -8.198000000
H    -4.723000000    -0.896000000    -8.914000000
H    -4.784000000    -0.472000000    -7.462000000
O    -8.132000000    -0.442000000    -3.193000000
H    -8.574000000    -0.028000000    -2.452000000
H    -8.785000000    -1.040000000    -3.557000000
O    -6.441000000    -2.441000000    -1.876000000
H    -5.568000000    -2.184000000    -2.173000000
H    -7.030000000    -1.813000000    -2.294000000
O    -4.193000000    -2.806000000    -5.215000000
H    -3.882000000    -2.775000000    -4.310000000
H    -4.915000000    -3.434000000    -5.199000000
O    -8.518000000    -5.847000000    -5.180000000
H    -8.025000000    -5.804000000    -6.000000000
H    -8.000000000    -5.331000000    -4.562000000
