215
-1481.49456
C    -4.285000000     1.257000000     2.257000000
H    -4.090000000     2.229000000     1.810000000
C    -3.302000000     0.646000000     3.089000000
C    -3.549000000    -0.634000000     3.440000000
H    -2.730000000    -1.202000000     3.874000000
C    -1.950000000     1.289000000     3.219000000
O    -2.049000000     2.705000000     3.284000000
H    -1.298000000     0.934000000     2.407000000
O    -1.426000000     0.770000000     4.440000000
C    -0.054000000     0.562000000     4.587000000
C     0.361000000    -0.806000000     4.483000000
H    -0.438000000    -1.541000000     4.431000000
C     1.687000000    -1.100000000     4.394000000
O     1.948000000    -2.499000000     4.203000000
C     2.640000000    -0.079000000     4.290000000
C     4.102000000    -0.371000000     3.919000000
H     4.772000000     0.374000000     4.352000000
C     4.321000000    -0.650000000     2.422000000
C     4.715000000     0.454000000     1.647000000
H     5.068000000     1.348000000     2.156000000
H     4.522000000    -1.274000000     4.366000000
C     2.226000000     1.272000000     4.396000000
H     2.890000000     2.092000000     4.137000000
C     0.883000000     1.586000000     4.483000000
C     0.507000000     3.030000000     4.468000000
H     1.310000000     3.676000000     4.828000000
H    -0.225000000     3.182000000     5.264000000
C     0.184000000     3.471000000     3.025000000
C     1.165000000     4.027000000     2.209000000
H     2.219000000     3.976000000     2.472000000
C    -1.149000000     3.494000000     2.685000000
C    -1.474000000     3.906000000     1.362000000
H    -2.457000000     3.709000000     0.942000000
C    -0.524000000     4.481000000     0.556000000
O    -0.928000000     4.890000000    -0.674000000
C    -0.562000000     4.010000000    -1.789000000
C    -1.713000000     3.922000000    -2.799000000
C    -1.429000000     3.612000000    -4.148000000
H    -0.398000000     3.478000000    -4.464000000
C    -3.066000000     3.818000000    -2.342000000
H    -3.205000000     3.912000000    -1.268000000
O     0.673000000     4.363000000    -2.379000000
H    -0.399000000     2.989000000    -1.415000000
C     0.861000000     4.622000000     0.999000000
C     1.893000000     5.273000000     0.086000000
H     2.718000000     5.677000000     0.677000000
H     1.448000000     6.039000000    -0.552000000
C     2.463000000     4.213000000    -0.849000000
C     3.649000000     3.599000000    -0.466000000
H     4.086000000     4.000000000     0.445000000
C     1.835000000     3.718000000    -2.020000000
C     2.259000000     2.671000000    -2.743000000
H     1.774000000     2.389000000    -3.674000000
C     3.397000000     2.041000000    -2.216000000
O     3.808000000     0.946000000    -2.922000000
C     3.481000000    -0.353000000    -2.396000000
C     2.808000000    -1.190000000    -3.474000000
C     2.115000000    -0.653000000    -4.565000000
H     2.034000000     0.423000000    -4.700000000
C     2.830000000    -2.589000000    -3.388000000
H     3.406000000    -3.052000000    -2.590000000
O     4.619000000    -1.017000000    -1.740000000
H     2.776000000    -0.165000000    -1.573000000
C     4.126000000     2.420000000    -1.094000000
C     5.237000000     1.624000000    -0.497000000
H     5.790000000     2.340000000     0.114000000
H     5.901000000     1.316000000    -1.308000000
C     4.782000000     0.407000000     0.250000000
C     4.530000000    -0.835000000    -0.366000000
C     4.161000000    -1.952000000     0.398000000
H     3.996000000    -2.869000000    -0.161000000
C     3.959000000    -1.820000000     1.757000000
O     3.356000000    -2.936000000     2.369000000
C     1.997000000    -2.778000000     2.797000000
H     1.441000000    -2.065000000     2.169000000
C     1.287000000    -4.100000000     2.556000000
C     0.114000000    -4.355000000     3.256000000
H    -0.134000000    -3.618000000     4.016000000
C     1.634000000    -4.944000000     1.482000000
H     2.573000000    -4.908000000     0.936000000
C     0.769000000    -6.009000000     1.160000000
O     0.932000000    -6.834000000     0.062000000
C    -0.377000000    -6.277000000     1.911000000
H    -0.949000000    -7.185000000     1.737000000
C    -0.640000000    -5.529000000     3.064000000
O    -1.584000000    -5.901000000     3.900000000
C    -2.459000000    -5.001000000     4.478000000
C    -3.239000000    -4.160000000     3.681000000
H    -3.098000000    -4.196000000     2.604000000
C    -2.481000000    -4.851000000     5.879000000
H    -1.973000000    -5.592000000     6.491000000
C    -3.363000000    -3.887000000     6.465000000
H    -3.537000000    -3.914000000     7.538000000
C    -4.202000000    -3.132000000     5.641000000
H    -4.990000000    -2.513000000     6.062000000
C    -4.109000000    -3.232000000     4.248000000
O    -5.046000000    -2.591000000     3.515000000
C    -4.810000000    -1.245000000     3.195000000
C    -5.789000000    -0.623000000     2.460000000
H    -6.731000000    -1.121000000     2.247000000
C    -5.519000000     0.633000000     1.905000000
O    -6.486000000     1.228000000     1.133000000
C    -6.293000000     2.417000000     0.524000000
C    -6.020000000     2.457000000    -0.852000000
H    -5.804000000     1.557000000    -1.423000000
C    -6.471000000     3.591000000     1.142000000
H    -6.801000000     3.559000000     2.177000000
C    -6.265000000     4.845000000     0.483000000
H    -6.585000000     5.739000000     1.013000000
C    -5.961000000     4.847000000    -0.889000000
H    -5.821000000     5.823000000    -1.347000000
C    -5.846000000     3.663000000    -1.529000000
O    -5.449000000     3.681000000    -2.835000000
C    -4.123000000     3.628000000    -3.273000000
C    -3.775000000     3.393000000    -4.640000000
H    -4.614000000     3.296000000    -5.325000000
C    -2.468000000     3.378000000    -5.093000000
O    -2.137000000     2.901000000    -6.382000000
C    -0.938000000     2.242000000    -6.701000000
C    -0.674000000     0.926000000    -6.373000000
H    -1.515000000     0.442000000    -5.884000000
C    -0.022000000     2.943000000    -7.496000000
H    -0.369000000     3.931000000    -7.787000000
C     1.215000000     2.364000000    -7.989000000
H     1.968000000     2.851000000    -8.604000000
C     1.443000000     1.012000000    -7.633000000
H     2.343000000     0.544000000    -8.023000000
C     0.492000000     0.345000000    -6.842000000
O     0.690000000    -0.944000000    -6.592000000
C     1.417000000    -1.446000000    -5.544000000
C     1.421000000    -2.817000000    -5.382000000
H     0.971000000    -3.366000000    -6.205000000
C     2.105000000    -3.411000000    -4.301000000
O     2.006000000    -4.752000000    -4.136000000
C     2.384000000    -5.412000000    -3.000000000
C     3.559000000    -6.161000000    -3.014000000
H     4.307000000    -5.986000000    -3.783000000
C     3.883000000    -6.974000000    -1.908000000
H     4.861000000    -7.449000000    -1.913000000
C     3.010000000    -7.259000000    -0.887000000
H     3.194000000    -7.837000000     0.015000000
C     1.780000000    -6.579000000    -0.962000000
C     1.470000000    -5.717000000    -1.958000000
H     0.554000000    -5.139000000    -1.862000000
C    -2.277000000    -2.195000000    -0.079000000
H    -2.535000000    -3.249000000    -0.014000000
C    -1.037000000    -1.657000000     0.331000000
H    -0.318000000    -2.382000000     0.704000000
C    -0.851000000    -0.307000000     0.288000000
H     0.031000000     0.203000000     0.656000000
C    -1.845000000     0.510000000    -0.306000000
H    -1.765000000     1.591000000    -0.383000000
C    -3.064000000    -0.082000000    -0.749000000
H    -3.893000000     0.562000000    -1.030000000
C    -3.291000000    -1.432000000    -0.635000000
C    -4.606000000    -2.011000000    -1.077000000
O    -5.239000000    -1.385000000    -1.914000000
O    -4.958000000    -3.102000000    -0.739000000
O    -3.857000000    -3.240000000    -5.926000000
H    -4.544000000    -2.616000000    -6.158000000
H    -3.325000000    -2.781000000    -5.276000000
O    -5.646000000    -7.902000000    -1.285000000
H    -5.004000000    -7.268000000    -1.602000000
H    -5.189000000    -8.743000000    -1.318000000
O    -8.960000000    -2.931000000     2.477000000
H    -8.313000000    -3.489000000     2.048000000
H    -8.458000000    -2.434000000     3.123000000
O    -6.834000000    -4.305000000    -2.460000000
H    -6.174000000    -3.808000000    -1.976000000
H    -7.662000000    -4.080000000    -2.036000000
O    -6.606000000    -3.948000000     1.578000000
H    -6.246000000    -3.758000000     0.712000000
H    -5.962000000    -3.590000000     2.189000000
O    -2.120000000    -1.908000000    -4.238000000
H    -1.326000000    -1.391000000    -4.104000000
H    -2.823000000    -1.260000000    -4.289000000
O   -10.075000000    -0.317000000     0.401000000
H    -9.800000000     0.494000000     0.828000000
H    -9.667000000    -1.011000000     0.920000000
O    -4.170000000     0.071000000    -4.052000000
H    -4.949000000     0.316000000    -4.552000000
H    -4.510000000    -0.414000000    -3.300000000
O    -2.567000000    -8.162000000    -0.099000000
H    -2.006000000    -8.473000000    -0.810000000
H    -2.895000000    -7.317000000    -0.405000000
O   -10.123000000     0.821000000    -2.985000000
H    -9.431000000     0.483000000    -2.417000000
H   -10.190000000     0.177000000    -3.690000000
O    -3.523000000    -5.563000000    -4.880000000
H    -3.778000000    -4.813000000    -5.418000000
H    -4.224000000    -6.201000000    -5.011000000
O    -1.934000000    -4.447000000    -2.972000000
H    -1.844000000    -3.600000000    -3.408000000
H    -2.345000000    -5.011000000    -3.627000000
O    -3.714000000    -5.717000000    -1.447000000
H    -4.327000000    -5.059000000    -1.120000000
H    -3.130000000    -5.232000000    -2.030000000
O    -0.778000000     0.299000000    -3.234000000
H    -0.586000000     0.088000000    -2.320000000
H    -1.690000000     0.590000000    -3.226000000
O    -7.643000000    -3.026000000    -5.212000000
H    -7.068000000    -2.539000000    -5.802000000
H    -7.049000000    -3.562000000    -4.687000000
O    -9.503000000    -2.797000000    -2.813000000
H    -8.944000000    -2.778000000    -3.590000000
H    -9.643000000    -3.728000000    -2.641000000
O    -6.875000000     0.396000000    -5.284000000
H    -7.558000000     0.955000000    -5.655000000
H    -7.204000000     0.161000000    -4.416000000
O    -7.536000000    -0.224000000    -2.333000000
H    -6.691000000    -0.670000000    -2.263000000
H    -8.181000000    -0.901000000    -2.132000000
O    -7.139000000    -6.944000000    -3.366000000
H    -6.873000000    -6.061000000    -3.112000000
H    -7.069000000    -7.456000000    -2.560000000
