215
-1454.53917
C    -4.430000000     2.186000000     1.961000000
H    -4.098000000     3.150000000     1.585000000
C    -3.643000000     1.428000000     2.884000000
C    -4.006000000     0.110000000     3.156000000
H    -3.181000000    -0.502000000     3.511000000
C    -2.316000000     1.968000000     3.380000000
O    -2.121000000     3.318000000     3.119000000
H    -1.640000000     1.539000000     2.625000000
O    -1.820000000     1.431000000     4.603000000
C    -0.543000000     0.937000000     4.591000000
C    -0.394000000    -0.391000000     4.548000000
H    -1.232000000    -1.020000000     4.836000000
C     0.833000000    -0.983000000     4.286000000
O     0.944000000    -2.333000000     4.205000000
C     1.996000000    -0.249000000     4.471000000
C     3.353000000    -0.819000000     4.257000000
H     4.007000000    -0.012000000     4.595000000
C     3.656000000    -1.083000000     2.807000000
C     4.375000000    -0.086000000     2.108000000
H     4.561000000     0.865000000     2.602000000
H     3.585000000    -1.746000000     4.786000000
C     1.854000000     1.166000000     4.468000000
H     2.730000000     1.778000000     4.268000000
C     0.604000000     1.761000000     4.523000000
C     0.440000000     3.241000000     4.417000000
H     1.315000000     3.707000000     4.875000000
H    -0.400000000     3.520000000     5.056000000
C     0.261000000     3.718000000     3.044000000
C     1.383000000     4.173000000     2.334000000
H     2.360000000     4.180000000     2.810000000
C    -1.017000000     3.737000000     2.417000000
C    -1.146000000     4.168000000     1.100000000
H    -2.126000000     4.104000000     0.632000000
C    -0.027000000     4.619000000     0.461000000
O    -0.182000000     4.910000000    -0.849000000
C     0.295000000     3.976000000    -1.841000000
C    -0.755000000     3.838000000    -2.948000000
C    -0.375000000     3.547000000    -4.284000000
H     0.665000000     3.521000000    -4.596000000
C    -2.171000000     3.762000000    -2.639000000
H    -2.533000000     3.906000000    -1.624000000
O     1.631000000     4.296000000    -2.325000000
H     0.465000000     3.025000000    -1.315000000
C     1.256000000     4.602000000     1.049000000
C     2.599000000     5.025000000     0.352000000
H     3.356000000     5.375000000     1.057000000
H     2.509000000     5.947000000    -0.226000000
C     3.160000000     3.870000000    -0.474000000
C     4.158000000     3.013000000     0.075000000
H     4.468000000     3.154000000     1.107000000
C     2.697000000     3.566000000    -1.784000000
C     3.195000000     2.478000000    -2.433000000
H     2.956000000     2.369000000    -3.487000000
C     4.076000000     1.489000000    -1.840000000
O     4.387000000     0.315000000    -2.547000000
C     3.765000000    -0.895000000    -1.997000000
C     3.184000000    -1.707000000    -3.063000000
C     2.571000000    -1.121000000    -4.222000000
H     2.563000000    -0.045000000    -4.376000000
C     3.162000000    -3.086000000    -2.912000000
H     3.724000000    -3.634000000    -2.159000000
O     4.716000000    -1.627000000    -1.222000000
H     2.892000000    -0.624000000    -1.385000000
C     4.531000000     1.798000000    -0.547000000
C     5.492000000     0.862000000     0.170000000
H     6.015000000     1.555000000     0.833000000
H     6.188000000     0.492000000    -0.586000000
C     4.776000000    -0.303000000     0.800000000
C     4.528000000    -1.522000000     0.147000000
C     3.730000000    -2.506000000     0.810000000
H     3.318000000    -3.337000000     0.245000000
C     3.323000000    -2.235000000     2.106000000
O     2.503000000    -3.158000000     2.598000000
C     1.116000000    -2.861000000     2.870000000
H     0.689000000    -2.097000000     2.203000000
C     0.313000000    -4.117000000     2.623000000
C    -0.889000000    -4.319000000     3.287000000
H    -1.210000000    -3.603000000     4.040000000
C     0.628000000    -5.009000000     1.625000000
H     1.548000000    -4.866000000     1.063000000
C    -0.175000000    -6.098000000     1.230000000
O     0.113000000    -6.916000000     0.203000000
C    -1.311000000    -6.302000000     1.911000000
H    -2.023000000    -7.092000000     1.686000000
C    -1.741000000    -5.364000000     2.898000000
O    -2.982000000    -5.612000000     3.547000000
C    -3.736000000    -4.600000000     4.038000000
C    -4.338000000    -3.689000000     3.187000000
H    -4.301000000    -3.821000000     2.109000000
C    -3.576000000    -4.283000000     5.353000000
H    -2.935000000    -4.852000000     6.021000000
C    -4.252000000    -3.146000000     5.873000000
H    -4.166000000    -3.064000000     6.954000000
C    -5.103000000    -2.376000000     5.079000000
H    -5.766000000    -1.594000000     5.442000000
C    -5.073000000    -2.583000000     3.680000000
O    -5.806000000    -1.686000000     2.909000000
C    -5.238000000    -0.360000000     2.704000000
C    -6.085000000     0.467000000     2.009000000
H    -7.067000000     0.128000000     1.690000000
C    -5.660000000     1.639000000     1.483000000
O    -6.524000000     2.277000000     0.596000000
C    -6.138000000     3.166000000    -0.329000000
C    -5.352000000     2.834000000    -1.438000000
H    -5.022000000     1.811000000    -1.601000000
C    -6.781000000     4.443000000    -0.296000000
H    -7.298000000     4.728000000     0.617000000
C    -6.598000000     5.369000000    -1.351000000
H    -7.083000000     6.339000000    -1.432000000
C    -5.760000000     5.066000000    -2.380000000
H    -5.638000000     5.816000000    -3.157000000
C    -5.153000000     3.824000000    -2.454000000
O    -4.482000000     3.504000000    -3.571000000
C    -3.079000000     3.499000000    -3.658000000
C    -2.641000000     3.246000000    -4.946000000
H    -3.354000000     2.988000000    -5.725000000
C    -1.309000000     3.246000000    -5.254000000
O    -0.993000000     2.857000000    -6.503000000
C     0.129000000     2.107000000    -6.801000000
C     0.162000000     0.826000000    -6.190000000
H    -0.597000000     0.497000000    -5.484000000
C     1.161000000     2.553000000    -7.574000000
H     1.095000000     3.563000000    -7.971000000
C     2.139000000     1.676000000    -7.990000000
H     3.022000000     1.991000000    -8.541000000
C     2.160000000     0.401000000    -7.524000000
H     2.894000000    -0.309000000    -7.894000000
C     1.213000000     0.003000000    -6.567000000
O     1.176000000    -1.351000000    -6.217000000
C     1.907000000    -1.919000000    -5.148000000
C     1.858000000    -3.278000000    -4.920000000
H     1.303000000    -3.858000000    -5.653000000
C     2.388000000    -3.884000000    -3.807000000
O     2.367000000    -5.258000000    -3.738000000
C     2.426000000    -6.050000000    -2.524000000
C     3.626000000    -6.595000000    -2.043000000
H     4.538000000    -6.532000000    -2.632000000
C     3.672000000    -7.101000000    -0.772000000
H     4.634000000    -7.484000000    -0.439000000
C     2.516000000    -7.219000000    -0.021000000
H     2.644000000    -7.496000000     1.022000000
C     1.272000000    -6.812000000    -0.511000000
C     1.250000000    -6.128000000    -1.754000000
H     0.308000000    -5.723000000    -2.115000000
C    -1.648000000    -2.584000000    -0.399000000
H    -1.597000000    -3.659000000    -0.551000000
C    -0.455000000    -1.855000000    -0.170000000
H     0.530000000    -2.313000000    -0.204000000
C    -0.657000000    -0.472000000     0.054000000
H     0.133000000     0.292000000     0.196000000
C    -1.927000000     0.088000000    -0.005000000
H    -1.929000000     1.175000000     0.009000000
C    -3.040000000    -0.709000000    -0.149000000
H    -4.010000000    -0.221000000    -0.191000000
C    -2.928000000    -2.093000000    -0.298000000
C    -4.076000000    -2.981000000    -0.628000000
O    -5.173000000    -2.490000000    -0.768000000
O    -3.974000000    -4.114000000    -0.927000000
O    -2.076000000    -8.318000000    -1.159000000
H    -2.133000000    -9.201000000    -1.525000000
H    -2.863000000    -8.230000000    -0.621000000
O    -5.079000000    -6.093000000     0.727000000
H    -6.031000000    -5.987000000     0.719000000
H    -4.754000000    -5.380000000     0.178000000
O    -9.092000000    -4.152000000    -1.925000000
H    -8.137000000    -4.200000000    -1.956000000
H    -9.386000000    -4.873000000    -2.481000000
O    -5.121000000    -8.695000000    -0.141000000
H    -5.721000000    -8.420000000    -0.835000000
H    -4.933000000    -7.891000000     0.344000000
O    -7.386000000    -4.803000000     3.581000000
H    -6.552000000    -4.819000000     3.112000000
H    -8.045000000    -4.963000000     2.905000000
O    -6.209000000    -4.435000000    -2.313000000
H    -5.594000000    -4.007000000    -1.718000000
H    -6.015000000    -5.369000000    -2.228000000
O    -7.354000000    -2.978000000     0.743000000
H    -7.185000000    -2.176000000     1.237000000
H    -6.737000000    -2.944000000     0.012000000
O    -9.437000000    -0.130000000    -0.248000000
H    -8.657000000    -0.316000000    -0.772000000
H    -9.705000000     0.747000000    -0.521000000
O    -3.653000000    -0.921000000    -4.455000000
H    -3.301000000    -1.502000000    -5.129000000
H    -2.894000000    -0.687000000    -3.920000000
O    -4.930000000    -3.522000000    -4.587000000
H    -5.114000000    -3.830000000    -3.700000000
H    -4.625000000    -2.622000000    -4.470000000
O    -5.881000000    -7.406000000    -2.625000000
H    -6.791000000    -7.603000000    -2.851000000
H    -5.445000000    -7.289000000    -3.469000000
O    -2.577000000    -5.563000000    -2.399000000
H    -3.115000000    -4.901000000    -1.964000000
H    -2.220000000    -6.090000000    -1.683000000
O    -8.088000000    -5.725000000     1.196000000
H    -7.948000000    -4.832000000     0.881000000
H    -8.812000000    -6.056000000     0.664000000
O    -1.319000000    -4.635000000    -4.576000000
H    -1.800000000    -5.062000000    -3.867000000
H    -1.905000000    -3.941000000    -4.880000000
O    -1.135000000    -1.369000000    -3.364000000
H    -0.304000000    -1.595000000    -3.782000000
H    -0.985000000    -1.528000000    -2.432000000
O    -7.646000000    -1.490000000    -4.328000000
H    -7.690000000    -2.435000000    -4.476000000
H    -7.111000000    -1.160000000    -5.049000000
O    -5.969000000    -0.090000000    -5.996000000
H    -5.212000000    -0.260000000    -5.436000000
H    -5.745000000     0.714000000    -6.465000000
O    -6.894000000    -0.598000000    -1.821000000
H    -6.222000000    -1.200000000    -1.500000000
H    -7.049000000    -0.871000000    -2.725000000
O    -4.243000000    -6.200000000    -4.660000000
H    -3.653000000    -6.298000000    -3.913000000
H    -4.224000000    -5.264000000    -4.859000000
