215
-1479.68484
C    -4.541000000     1.174000000     1.352000000
H    -4.705000000     2.247000000     1.287000000
C    -3.470000000     0.646000000     2.070000000
C    -3.316000000    -0.723000000     2.154000000
H    -2.467000000    -1.152000000     2.680000000
C    -2.429000000     1.527000000     2.747000000
O    -2.853000000     2.981000000     2.744000000
H    -1.513000000     1.556000000     2.140000000
O    -2.109000000     1.105000000     4.090000000
C    -0.809000000     1.108000000     4.412000000
C    -0.268000000    -0.158000000     4.490000000
H    -0.947000000    -1.005000000     4.436000000
C     1.094000000    -0.320000000     4.580000000
O     1.505000000    -1.658000000     4.562000000
C     1.963000000     0.798000000     4.626000000
C     3.478000000     0.763000000     4.598000000
H     3.942000000     1.680000000     4.967000000
C     3.894000000     0.373000000     3.179000000
C     4.344000000     1.444000000     2.342000000
H     4.511000000     2.414000000     2.801000000
H     3.989000000     0.138000000     5.333000000
C     1.376000000     2.098000000     4.641000000
H     2.001000000     2.984000000     4.706000000
C     0.008000000     2.294000000     4.409000000
C    -0.513000000     3.653000000     4.241000000
H     0.059000000     4.473000000     4.679000000
H    -1.459000000     3.633000000     4.786000000
C    -0.711000000     4.082000000     2.755000000
C     0.312000000     4.661000000     1.959000000
H     1.331000000     4.674000000     2.337000000
C    -1.986000000     3.848000000     2.192000000
C    -2.242000000     4.231000000     0.876000000
H    -3.238000000     3.949000000     0.546000000
C    -1.225000000     4.776000000     0.068000000
O    -1.514000000     4.779000000    -1.264000000
C    -0.881000000     3.703000000    -1.926000000
C    -1.842000000     3.177000000    -2.901000000
C    -1.384000000     2.278000000    -3.832000000
H    -0.334000000     2.102000000    -4.051000000
C    -3.183000000     3.467000000    -2.850000000
H    -3.597000000     4.205000000    -2.168000000
O     0.322000000     4.129000000    -2.493000000
H    -0.631000000     2.868000000    -1.254000000
C     0.042000000     5.049000000     0.636000000
C     1.220000000     5.555000000    -0.259000000
H     1.851000000     6.093000000     0.451000000
H     1.046000000     6.341000000    -0.996000000
C     2.045000000     4.473000000    -0.823000000
C     3.168000000     3.992000000    -0.160000000
H     3.480000000     4.348000000     0.819000000
C     1.514000000     3.794000000    -1.944000000
C     2.183000000     2.662000000    -2.447000000
H     1.743000000     2.307000000    -3.375000000
C     3.270000000     2.147000000    -1.811000000
O     3.957000000     1.132000000    -2.375000000
C     3.612000000    -0.131000000    -1.800000000
C     3.364000000    -1.206000000    -2.916000000
C     3.052000000    -0.858000000    -4.282000000
H     3.097000000     0.162000000    -4.654000000
C     3.225000000    -2.523000000    -2.493000000
H     3.448000000    -2.718000000    -1.447000000
O     4.668000000    -0.473000000    -0.872000000
H     2.629000000    -0.066000000    -1.312000000
C     3.782000000     2.855000000    -0.693000000
C     4.986000000     2.323000000     0.011000000
H     5.421000000     3.204000000     0.487000000
H     5.775000000     2.077000000    -0.702000000
C     4.689000000     1.210000000     1.004000000
C     4.556000000    -0.100000000     0.508000000
C     4.323000000    -1.164000000     1.363000000
H     4.111000000    -2.143000000     0.941000000
C     3.908000000    -0.894000000     2.675000000
O     3.456000000    -1.914000000     3.432000000
C     2.080000000    -2.166000000     3.383000000
H     1.680000000    -1.626000000     2.512000000
C     1.756000000    -3.627000000     3.126000000
C     0.514000000    -4.081000000     3.539000000
H    -0.164000000    -3.430000000     4.085000000
C     2.651000000    -4.443000000     2.364000000
H     3.563000000    -3.995000000     1.980000000
C     2.372000000    -5.790000000     2.209000000
O     3.212000000    -6.651000000     1.502000000
C     1.135000000    -6.238000000     2.665000000
H     0.905000000    -7.294000000     2.551000000
C     0.208000000    -5.402000000     3.258000000
O    -1.036000000    -5.921000000     3.527000000
C    -2.136000000    -5.184000000     3.659000000
C    -2.622000000    -4.410000000     2.603000000
H    -2.122000000    -4.442000000     1.639000000
C    -2.854000000    -5.318000000     4.833000000
H    -2.509000000    -5.957000000     5.641000000
C    -4.005000000    -4.515000000     5.036000000
H    -4.517000000    -4.511000000     5.994000000
C    -4.421000000    -3.637000000     4.032000000
H    -5.285000000    -2.988000000     4.154000000
C    -3.774000000    -3.634000000     2.785000000
O    -4.281000000    -2.929000000     1.701000000
C    -4.409000000    -1.505000000     1.670000000
C    -5.521000000    -1.003000000     1.082000000
H    -6.264000000    -1.657000000     0.632000000
C    -5.597000000     0.383000000     0.911000000
O    -6.752000000     0.853000000     0.375000000
C    -6.932000000     1.878000000    -0.476000000
C    -6.065000000     1.980000000    -1.597000000
H    -5.452000000     1.122000000    -1.860000000
C    -7.646000000     2.992000000    -0.046000000
H    -8.105000000     2.841000000     0.927000000
C    -7.694000000     4.145000000    -0.776000000
H    -8.311000000     4.959000000    -0.404000000
C    -7.037000000     4.184000000    -1.986000000
H    -7.229000000     4.975000000    -2.707000000
C    -6.138000000     3.144000000    -2.373000000
O    -5.445000000     3.219000000    -3.604000000
C    -4.140000000     2.858000000    -3.658000000
C    -3.733000000     1.820000000    -4.494000000
H    -4.435000000     1.382000000    -5.199000000
C    -2.380000000     1.576000000    -4.593000000
O    -1.955000000     0.670000000    -5.608000000
C    -0.713000000     0.761000000    -6.181000000
C     0.129000000    -0.331000000    -5.982000000
H    -0.236000000    -1.116000000    -5.325000000
C    -0.242000000     1.864000000    -6.941000000
H    -0.912000000     2.713000000    -7.048000000
C     1.057000000     1.790000000    -7.465000000
H     1.483000000     2.619000000    -8.025000000
C     1.894000000     0.675000000    -7.382000000
H     2.890000000     0.621000000    -7.813000000
C     1.390000000    -0.382000000    -6.616000000
O     2.168000000    -1.485000000    -6.441000000
C     2.635000000    -1.863000000    -5.150000000
C     2.486000000    -3.163000000    -4.660000000
H     2.079000000    -3.967000000    -5.268000000
C     2.816000000    -3.501000000    -3.322000000
O     2.437000000    -4.703000000    -2.832000000
C     3.292000000    -5.348000000    -1.965000000
C     4.422000000    -5.999000000    -2.447000000
H     4.665000000    -5.942000000    -3.505000000
C     5.157000000    -6.841000000    -1.631000000
H     6.024000000    -7.374000000    -2.012000000
C     4.740000000    -7.099000000    -0.354000000
H     5.250000000    -7.810000000     0.291000000
C     3.636000000    -6.419000000     0.176000000
C     2.878000000    -5.624000000    -0.719000000
H     1.929000000    -5.218000000    -0.378000000
C    -0.152000000    -2.581000000    -0.676000000
H     0.317000000    -3.558000000    -0.765000000
C     0.558000000    -1.535000000    -0.077000000
H     1.548000000    -1.689000000     0.344000000
C     0.079000000    -0.281000000    -0.035000000
H     0.538000000     0.569000000     0.467000000
C    -1.152000000    -0.035000000    -0.637000000
H    -1.552000000     0.969000000    -0.522000000
C    -1.833000000    -0.984000000    -1.371000000
H    -2.743000000    -0.691000000    -1.889000000
C    -1.350000000    -2.276000000    -1.347000000
C    -2.060000000    -3.407000000    -2.154000000
O    -2.981000000    -3.097000000    -2.810000000
O    -1.666000000    -4.569000000    -1.944000000
O    -4.169000000    -5.859000000    -2.297000000
H    -3.641000000    -5.073000000    -2.434000000
H    -3.611000000    -6.578000000    -2.595000000
O    -6.397000000    -5.326000000    -3.977000000
H    -5.673000000    -5.922000000    -3.787000000
H    -6.211000000    -4.995000000    -4.855000000
O    -0.095000000    -6.300000000    -0.221000000
H    -0.576000000    -5.556000000    -0.581000000
H    -0.692000000    -6.684000000     0.421000000
O    -2.813000000    -6.385000000     0.284000000
H    -2.751000000    -5.753000000    -0.432000000
H    -3.637000000    -6.171000000     0.721000000
O    -4.913000000    -3.154000000    -1.037000000
H    -4.408000000    -3.268000000    -0.232000000
H    -4.255000000    -3.131000000    -1.731000000
O    -6.954000000    -2.072000000    -3.207000000
H    -7.404000000    -2.911000000    -3.305000000
H    -6.872000000    -1.954000000    -2.261000000
O     2.345000000    -7.112000000    -4.725000000
H     1.817000000    -6.633000000    -5.363000000
H     2.580000000    -6.456000000    -4.068000000
O    -1.542000000    -2.529000000    -7.881000000
H    -1.827000000    -2.850000000    -7.026000000
H    -2.116000000    -1.785000000    -8.061000000
O    -4.002000000    -9.652000000    -1.554000000
H    -4.018000000    -8.772000000    -1.930000000
H    -4.104000000   -10.236000000    -2.306000000
O    -2.819000000    -7.822000000    -3.453000000
H    -2.905000000    -8.062000000    -4.376000000
H    -1.935000000    -8.101000000    -3.214000000
O    -5.304000000    -5.594000000     0.809000000
H    -5.796000000    -4.836000000     1.124000000
H    -5.688000000    -5.791000000    -0.046000000
O    -1.985000000    -3.817000000    -5.235000000
H    -2.207000000    -3.232000000    -4.511000000
H    -1.361000000    -4.438000000    -4.858000000
O    -1.713000000    -8.636000000     1.651000000
H    -2.154000000    -7.945000000     1.157000000
H    -2.423000000    -9.197000000     1.963000000
O    -6.919000000    -4.853000000    -1.469000000
H    -6.653000000    -5.134000000    -2.344000000
H    -6.343000000    -4.115000000    -1.269000000
O     0.069000000    -8.007000000    -2.755000000
H     0.809000000    -8.597000000    -2.610000000
H     0.112000000    -7.386000000    -2.028000000
O    -4.623000000    -0.818000000    -7.233000000
H    -4.698000000    -1.151000000    -6.338000000
H    -3.713000000    -0.531000000    -7.306000000
O    -4.787000000    -2.185000000    -4.777000000
H    -3.992000000    -2.431000000    -4.304000000
H    -5.449000000    -2.080000000    -4.094000000
O    -2.837000000    -6.144000000    -6.559000000
H    -2.463000000    -5.495000000    -5.963000000
H    -2.918000000    -5.683000000    -7.394000000
O    -0.467000000    -5.618000000    -4.059000000
H    -0.814000000    -5.390000000    -3.197000000
H    -0.055000000    -6.473000000    -3.933000000
