215
-1467.01106
C    -4.947000000    -0.320000000     2.328000000
H    -5.440000000     0.618000000     2.088000000
C    -3.820000000    -0.472000000     3.046000000
C    -3.355000000    -1.818000000     3.240000000
H    -2.446000000    -2.008000000     3.804000000
C    -2.832000000     0.634000000     3.383000000
O    -3.380000000     1.936000000     3.279000000
H    -2.030000000     0.628000000     2.631000000
O    -2.123000000     0.399000000     4.647000000
C    -0.781000000     0.613000000     4.648000000
C     0.085000000    -0.479000000     4.530000000
H    -0.286000000    -1.499000000     4.592000000
C     1.439000000    -0.317000000     4.407000000
O     2.254000000    -1.462000000     4.377000000
C     1.970000000     0.975000000     4.410000000
C     3.434000000     1.165000000     4.317000000
H     3.801000000     2.082000000     4.783000000
C     3.837000000     1.139000000     2.836000000
C     3.964000000     2.298000000     2.083000000
H     3.684000000     3.225000000     2.577000000
H     3.927000000     0.312000000     4.788000000
C     1.110000000     2.041000000     4.548000000
H     1.509000000     3.050000000     4.489000000
C    -0.274000000     1.905000000     4.605000000
C    -1.098000000     3.113000000     4.581000000
H    -0.618000000     3.959000000     5.076000000
H    -2.014000000     2.974000000     5.158000000
C    -1.463000000     3.522000000     3.169000000
C    -0.680000000     4.458000000     2.496000000
H     0.242000000     4.845000000     2.922000000
C    -2.653000000     2.992000000     2.631000000
C    -3.013000000     3.260000000     1.292000000
H    -3.812000000     2.699000000     0.815000000
C    -2.232000000     4.215000000     0.571000000
O    -2.500000000     4.344000000    -0.768000000
C    -1.604000000     3.762000000    -1.690000000
C    -2.275000000     2.935000000    -2.857000000
C    -1.832000000     2.984000000    -4.184000000
H    -1.154000000     3.784000000    -4.473000000
C    -3.284000000     1.976000000    -2.545000000
H    -3.700000000     1.844000000    -1.550000000
O    -0.696000000     4.746000000    -2.267000000
H    -1.021000000     2.960000000    -1.215000000
C    -1.055000000     4.790000000     1.118000000
C    -0.164000000     5.783000000     0.272000000
H     0.350000000     6.316000000     1.074000000
H    -0.705000000     6.467000000    -0.385000000
C     0.887000000     5.037000000    -0.522000000
C     2.170000000     4.795000000     0.036000000
H     2.381000000     5.231000000     1.008000000
C     0.593000000     4.638000000    -1.846000000
C     1.442000000     3.667000000    -2.483000000
H     1.184000000     3.173000000    -3.416000000
C     2.643000000     3.414000000    -1.869000000
O     3.394000000     2.450000000    -2.497000000
C     3.355000000     1.082000000    -1.948000000
C     3.060000000     0.056000000    -3.045000000
C     2.750000000     0.453000000    -4.429000000
H     2.917000000     1.426000000    -4.884000000
C     2.810000000    -1.240000000    -2.671000000
H     3.099000000    -1.622000000    -1.695000000
O     4.653000000     0.870000000    -1.207000000
H     2.555000000     1.134000000    -1.195000000
C     3.109000000     3.983000000    -0.642000000
C     4.374000000     3.546000000     0.028000000
H     4.800000000     4.296000000     0.697000000
H     5.117000000     3.427000000    -0.763000000
C     4.280000000     2.221000000     0.763000000
C     4.553000000     0.963000000     0.135000000
C     4.492000000    -0.166000000     0.931000000
H     4.799000000    -1.140000000     0.557000000
C     4.134000000    -0.108000000     2.308000000
O     4.035000000    -1.266000000     2.977000000
C     2.768000000    -1.905000000     3.117000000
H     2.115000000    -1.593000000     2.289000000
C     2.777000000    -3.390000000     2.990000000
C     1.925000000    -4.164000000     3.799000000
H     1.369000000    -3.811000000     4.663000000
C     3.250000000    -4.064000000     1.828000000
H     3.833000000    -3.430000000     1.165000000
C     3.026000000    -5.357000000     1.521000000
O     3.664000000    -6.036000000     0.501000000
C     2.138000000    -6.027000000     2.302000000
H     1.875000000    -7.055000000     2.065000000
C     1.522000000    -5.450000000     3.379000000
O     0.618000000    -6.189000000     4.073000000
C    -0.555000000    -5.637000000     4.432000000
C    -1.357000000    -5.093000000     3.452000000
H    -1.085000000    -5.166000000     2.402000000
C    -1.009000000    -5.604000000     5.780000000
H    -0.355000000    -6.007000000     6.549000000
C    -2.250000000    -5.014000000     6.157000000
H    -2.591000000    -5.046000000     7.189000000
C    -3.048000000    -4.464000000     5.137000000
H    -4.042000000    -4.164000000     5.458000000
C    -2.610000000    -4.501000000     3.770000000
O    -3.465000000    -4.161000000     2.743000000
C    -4.017000000    -2.888000000     2.668000000
C    -5.221000000    -2.671000000     1.915000000
H    -5.747000000    -3.472000000     1.402000000
C    -5.600000000    -1.371000000     1.691000000
O    -6.727000000    -1.065000000     1.025000000
C    -6.647000000    -0.267000000    -0.084000000
C    -5.728000000    -0.475000000    -1.063000000
H    -5.046000000    -1.310000000    -0.924000000
C    -7.751000000     0.531000000    -0.320000000
H    -8.540000000     0.577000000     0.426000000
C    -7.872000000     1.169000000    -1.566000000
H    -8.793000000     1.621000000    -1.923000000
C    -6.837000000     1.073000000    -2.531000000
H    -6.834000000     1.588000000    -3.488000000
C    -5.712000000     0.269000000    -2.208000000
O    -4.686000000     0.094000000    -3.171000000
C    -3.789000000     1.091000000    -3.549000000
C    -3.237000000     1.115000000    -4.797000000
H    -3.522000000     0.393000000    -5.558000000
C    -2.359000000     2.115000000    -5.162000000
O    -2.045000000     2.230000000    -6.498000000
C    -0.849000000     1.876000000    -7.007000000
C     0.031000000     0.996000000    -6.406000000
H    -0.215000000     0.437000000    -5.507000000
C    -0.487000000     2.485000000    -8.227000000
H    -1.187000000     3.198000000    -8.655000000
C     0.704000000     2.220000000    -8.862000000
H     1.021000000     2.715000000    -9.777000000
C     1.556000000     1.302000000    -8.306000000
H     2.510000000     1.043000000    -8.757000000
C     1.284000000     0.737000000    -7.029000000
O     2.105000000    -0.225000000    -6.579000000
C     2.217000000    -0.510000000    -5.301000000
C     1.976000000    -1.815000000    -4.873000000
H     1.527000000    -2.593000000    -5.485000000
C     2.271000000    -2.199000000    -3.547000000
O     2.296000000    -3.562000000    -3.292000000
C     3.332000000    -4.085000000    -2.581000000
C     4.629000000    -4.081000000    -3.056000000
H     4.814000000    -3.739000000    -4.071000000
C     5.659000000    -4.646000000    -2.323000000
H     6.680000000    -4.607000000    -2.694000000
C     5.317000000    -5.270000000    -1.108000000
H     6.161000000    -5.773000000    -0.644000000
C     4.015000000    -5.258000000    -0.572000000
C     2.988000000    -4.634000000    -1.358000000
H     1.948000000    -4.670000000    -1.045000000
C    -0.391000000    -2.594000000    -0.027000000
H    -0.462000000    -3.546000000     0.493000000
C    -0.171000000    -1.428000000     0.626000000
H    -0.053000000    -1.435000000     1.707000000
C     0.071000000    -0.240000000    -0.071000000
H     0.290000000     0.653000000     0.489000000
C    -0.168000000    -0.183000000    -1.413000000
H     0.005000000     0.718000000    -1.995000000
C    -0.604000000    -1.328000000    -2.071000000
H    -0.863000000    -1.215000000    -3.121000000
C    -0.613000000    -2.520000000    -1.398000000
C    -0.955000000    -3.780000000    -2.101000000
O    -1.752000000    -3.742000000    -3.023000000
O    -0.605000000    -4.900000000    -1.646000000
O    -5.535000000    -2.757000000    -4.003000000
H    -6.043000000    -3.421000000    -3.536000000
H    -4.984000000    -3.256000000    -4.605000000
O    -1.172000000    -3.815000000    -7.151000000
H    -0.796000000    -3.308000000    -7.871000000
H    -1.389000000    -3.162000000    -6.486000000
O    -4.150000000    -8.488000000    -3.161000000
H    -3.951000000    -7.565000000    -3.004000000
H    -3.701000000    -8.954000000    -2.456000000
O    -3.183000000    -7.363000000     1.892000000
H    -2.683000000    -7.822000000     2.567000000
H    -3.902000000    -6.947000000     2.368000000
O     1.420000000    -9.262000000     0.337000000
H     0.718000000    -9.778000000    -0.060000000
H     1.278000000    -8.373000000     0.010000000
O    -3.168000000    -5.489000000    -0.104000000
H    -2.338000000    -5.453000000    -0.580000000
H    -3.028000000    -6.149000000     0.574000000
O    -6.681000000    -5.069000000    -3.226000000
H    -5.945000000    -5.675000000    -3.136000000
H    -7.375000000    -5.454000000    -2.692000000
O    -3.017000000    -8.800000000    -0.662000000
H    -3.192000000    -8.305000000     0.138000000
H    -2.220000000    -9.294000000    -0.469000000
O    -3.973000000    -5.544000000    -2.612000000
H    -3.311000000    -4.930000000    -2.927000000
H    -3.777000000    -5.652000000    -1.682000000
O    -3.276000000    -1.440000000    -7.672000000
H    -3.481000000    -1.676000000    -6.767000000
H    -3.950000000    -0.805000000    -7.913000000
O     1.980000000    -7.190000000    -5.867000000
H     1.668000000    -7.152000000    -6.771000000
H     1.394000000    -6.606000000    -5.387000000
O     0.895000000    -6.957000000    -0.934000000
H     0.613000000    -6.043000000    -0.889000000
H     0.480000000    -7.298000000    -1.726000000
O    -0.373000000    -9.936000000    -3.759000000
H    -0.821000000    -9.274000000    -3.233000000
H    -1.073000000   -10.511000000    -4.068000000
O    -6.378000000    -5.484000000    -0.069000000
H    -5.550000000    -5.229000000    -0.478000000
H    -6.961000000    -4.741000000    -0.227000000
O    -0.768000000    -7.112000000    -3.228000000
H    -0.862000000    -6.921000000    -4.161000000
H    -0.670000000    -6.253000000    -2.816000000
O    -3.399000000    -5.294000000    -6.272000000
H    -4.122000000    -4.984000000    -6.818000000
H    -2.631000000    -4.830000000    -6.606000000
O    -2.694000000    -2.167000000    -4.837000000
H    -3.574000000    -2.106000000    -4.466000000
H    -2.147000000    -2.465000000    -4.110000000
O    -2.230000000    -7.751000000    -5.628000000
H    -2.711000000    -8.119000000    -4.887000000
H    -2.568000000    -6.860000000    -5.714000000
O     0.248000000    -4.876000000    -5.065000000
H    -0.326000000    -4.478000000    -5.719000000
H    -0.092000000    -4.563000000    -4.227000000
