215
-1423.24518
C    -4.992000000     0.100000000     2.557000000
H    -5.170000000     1.147000000     2.323000000
C    -3.835000000    -0.156000000     3.300000000
C    -3.657000000    -1.515000000     3.647000000
H    -2.802000000    -1.919000000     4.182000000
C    -2.670000000     0.833000000     3.377000000
O    -3.097000000     2.214000000     3.401000000
H    -2.121000000     0.648000000     2.442000000
O    -1.917000000     0.526000000     4.592000000
C    -0.494000000     0.649000000     4.536000000
C     0.288000000    -0.490000000     4.470000000
H    -0.133000000    -1.489000000     4.552000000
C     1.615000000    -0.347000000     4.310000000
O     2.265000000    -1.478000000     4.249000000
C     2.266000000     0.882000000     4.350000000
C     3.804000000     0.992000000     4.134000000
H     4.202000000     1.962000000     4.438000000
C     4.187000000     0.749000000     2.583000000
C     4.351000000     1.849000000     1.824000000
H     4.346000000     2.830000000     2.292000000
H     4.311000000     0.152000000     4.614000000
C     1.502000000     2.027000000     4.415000000
H     1.917000000     2.997000000     4.156000000
C     0.103000000     1.903000000     4.536000000
C    -0.675000000     3.230000000     4.645000000
H    -0.230000000     4.148000000     5.036000000
H    -1.584000000     2.991000000     5.201000000
C    -1.172000000     3.654000000     3.270000000
C    -0.351000000     4.433000000     2.425000000
H     0.577000000     4.833000000     2.828000000
C    -2.370000000     3.131000000     2.713000000
C    -2.637000000     3.338000000     1.342000000
H    -3.448000000     2.880000000     0.781000000
C    -1.851000000     4.158000000     0.575000000
O    -2.226000000     4.228000000    -0.724000000
C    -1.424000000     3.484000000    -1.738000000
C    -2.286000000     2.641000000    -2.674000000
C    -2.005000000     2.559000000    -4.073000000
H    -1.082000000     2.968000000    -4.476000000
C    -3.441000000     1.974000000    -2.140000000
H    -3.607000000     2.060000000    -1.070000000
O    -0.487000000     4.343000000    -2.382000000
H    -0.830000000     2.689000000    -1.264000000
C    -0.686000000     4.684000000     1.084000000
C     0.183000000     5.559000000     0.171000000
H     0.749000000     6.209000000     0.842000000
H    -0.392000000     6.379000000    -0.264000000
C     1.176000000     4.709000000    -0.718000000
C     2.477000000     4.440000000    -0.219000000
H     2.905000000     4.930000000     0.652000000
C     0.792000000     4.190000000    -1.948000000
C     1.718000000     3.365000000    -2.622000000
H     1.320000000     2.847000000    -3.490000000
C     2.931000000     3.025000000    -2.107000000
O     3.618000000     2.061000000    -2.740000000
C     3.497000000     0.725000000    -2.359000000
C     3.248000000    -0.278000000    -3.526000000
C     2.589000000     0.071000000    -4.718000000
H     2.206000000     1.086000000    -4.652000000
C     3.592000000    -1.648000000    -3.337000000
H     3.894000000    -1.969000000    -2.344000000
O     4.637000000     0.370000000    -1.500000000
H     2.650000000     0.651000000    -1.662000000
C     3.380000000     3.537000000    -0.895000000
C     4.737000000     3.078000000    -0.338000000
H     5.034000000     3.855000000     0.369000000
H     5.490000000     3.055000000    -1.128000000
C     4.620000000     1.764000000     0.470000000
C     4.624000000     0.523000000    -0.146000000
C     4.570000000    -0.675000000     0.572000000
H     4.513000000    -1.634000000     0.062000000
C     4.336000000    -0.500000000     1.973000000
O     4.081000000    -1.658000000     2.667000000
C     2.660000000    -1.920000000     2.941000000
H     2.158000000    -1.372000000     2.130000000
C     2.326000000    -3.443000000     2.593000000
C     1.327000000    -4.148000000     3.299000000
H     0.767000000    -3.638000000     4.079000000
C     3.011000000    -4.058000000     1.535000000
H     3.852000000    -3.511000000     1.115000000
C     2.645000000    -5.338000000     1.132000000
O     3.262000000    -5.952000000     0.086000000
C     1.592000000    -5.987000000     1.809000000
H     1.305000000    -7.007000000     1.568000000
C     0.930000000    -5.391000000     2.865000000
O    -0.285000000    -5.845000000     3.367000000
C    -1.319000000    -5.214000000     4.033000000
C    -2.425000000    -4.763000000     3.346000000
H    -2.447000000    -4.800000000     2.260000000
C    -1.284000000    -5.179000000     5.418000000
H    -0.376000000    -5.533000000     5.900000000
C    -2.257000000    -4.500000000     6.115000000
H    -2.213000000    -4.334000000     7.188000000
C    -3.429000000    -4.175000000     5.489000000
H    -4.247000000    -3.663000000     5.989000000
C    -3.486000000    -4.342000000     4.089000000
O    -4.577000000    -3.826000000     3.473000000
C    -4.677000000    -2.457000000     3.330000000
C    -5.798000000    -2.140000000     2.585000000
H    -6.554000000    -2.910000000     2.450000000
C    -6.069000000    -0.814000000     2.288000000
O    -7.270000000    -0.428000000     1.683000000
C    -7.148000000     0.281000000     0.551000000
C    -6.136000000     0.011000000    -0.424000000
H    -5.443000000    -0.822000000    -0.338000000
C    -8.015000000     1.356000000     0.262000000
H    -8.750000000     1.615000000     1.020000000
C    -7.936000000     2.142000000    -0.873000000
H    -8.617000000     2.983000000    -0.974000000
C    -6.920000000     1.907000000    -1.818000000
H    -6.876000000     2.496000000    -2.730000000
C    -6.114000000     0.837000000    -1.545000000
O    -5.310000000     0.449000000    -2.576000000
C    -4.256000000     1.201000000    -3.025000000
C    -3.908000000     1.132000000    -4.376000000
H    -4.466000000     0.451000000    -5.013000000
C    -2.825000000     1.776000000    -4.886000000
O    -2.557000000     1.408000000    -6.205000000
C    -1.299000000     1.523000000    -6.750000000
C    -0.301000000     0.638000000    -6.382000000
H    -0.407000000    -0.061000000    -5.555000000
C    -1.098000000     2.474000000    -7.774000000
H    -1.939000000     3.118000000    -8.017000000
C     0.111000000     2.432000000    -8.480000000
H     0.221000000     3.155000000    -9.284000000
C     1.084000000     1.477000000    -8.185000000
H     1.920000000     1.436000000    -8.879000000
C     0.875000000     0.481000000    -7.168000000
O     1.736000000    -0.539000000    -6.947000000
C     2.365000000    -0.857000000    -5.785000000
C     2.750000000    -2.185000000    -5.556000000
H     2.500000000    -2.913000000    -6.323000000
C     3.338000000    -2.589000000    -4.360000000
O     3.667000000    -3.921000000    -4.153000000
C     4.246000000    -4.289000000    -2.941000000
C     5.639000000    -4.207000000    -2.746000000
H     6.300000000    -3.972000000    -3.576000000
C     6.220000000    -4.701000000    -1.630000000
H     7.288000000    -4.682000000    -1.430000000
C     5.451000000    -5.184000000    -0.575000000
H     5.848000000    -5.607000000     0.345000000
C     4.094000000    -5.353000000    -0.767000000
C     3.502000000    -4.823000000    -1.901000000
H     2.431000000    -4.887000000    -2.078000000
C    -0.213000000    -2.644000000    -0.176000000
H    -0.409000000    -3.556000000     0.383000000
C     0.087000000    -1.431000000     0.434000000
H     0.146000000    -1.329000000     1.515000000
C     0.313000000    -0.278000000    -0.363000000
H     0.682000000     0.621000000     0.091000000
C     0.221000000    -0.411000000    -1.779000000
H     0.531000000     0.467000000    -2.341000000
C    -0.232000000    -1.587000000    -2.390000000
H    -0.497000000    -1.583000000    -3.444000000
C    -0.371000000    -2.700000000    -1.597000000
C    -0.514000000    -4.039000000    -2.191000000
O    -0.848000000    -4.017000000    -3.295000000
O    -0.352000000    -5.071000000    -1.561000000
O    -0.825000000    -3.892000000    -8.785000000
H    -1.002000000    -3.524000000    -9.651000000
H    -0.882000000    -3.143000000    -8.191000000
O     4.735000000    -6.990000000    -4.789000000
H     4.033000000    -7.441000000    -4.319000000
H     4.766000000    -6.119000000    -4.395000000
O    -1.262000000    -8.142000000     1.666000000
H    -1.560000000    -8.941000000     1.230000000
H    -0.761000000    -8.454000000     2.420000000
O    -2.501000000    -6.537000000    -0.507000000
H    -1.730000000    -6.008000000    -0.708000000
H    -2.213000000    -7.125000000     0.191000000
O    -4.758000000    -5.832000000    -2.467000000
H    -4.235000000    -6.046000000    -1.694000000
H    -5.423000000    -5.224000000    -2.145000000
O    -0.137000000   -10.260000000    -1.377000000
H     0.231000000    -9.396000000    -1.190000000
H    -0.040000000   -10.362000000    -2.324000000
O    -2.387000000    -7.917000000    -3.454000000
H    -1.490000000    -7.584000000    -3.428000000
H    -2.738000000    -7.730000000    -2.584000000
O    -2.216000000    -2.118000000    -6.699000000
H    -2.675000000    -2.927000000    -6.472000000
H    -2.871000000    -1.592000000    -7.158000000
O     1.671000000    -5.770000000    -6.056000000
H     1.515000000    -6.027000000    -6.965000000
H     1.256000000    -4.912000000    -5.975000000
O    -5.944000000    -6.681000000    -4.893000000
H    -6.407000000    -7.514000000    -4.802000000
H    -5.422000000    -6.609000000    -4.093000000
O     0.828000000    -7.553000000    -1.102000000
H     0.688000000    -6.607000000    -1.116000000
H     1.559000000    -7.696000000    -1.703000000
O    -6.498000000    -3.387000000    -0.250000000
H    -7.436000000    -3.199000000    -0.275000000
H    -6.188000000    -3.176000000    -1.131000000
O     0.578000000    -6.615000000    -3.624000000
H     0.621000000    -6.140000000    -4.454000000
H     0.090000000    -6.034000000    -3.041000000
O    -1.701000000    -5.902000000    -6.607000000
H    -1.274000000    -5.150000000    -7.017000000
H    -2.145000000    -5.537000000    -5.841000000
O    -3.135000000    -4.762000000    -4.404000000
H    -3.759000000    -5.200000000    -3.825000000
H    -2.437000000    -4.462000000    -3.821000000
O    -1.787000000    -8.409000000    -5.922000000
H    -2.205000000    -8.467000000    -5.063000000
H    -1.852000000    -7.483000000    -6.157000000
O     2.668000000    -8.278000000    -3.693000000
H     1.977000000    -7.623000000    -3.792000000
H     2.281000000    -9.086000000    -4.031000000
O    -5.776000000    -2.951000000    -2.933000000
H    -5.812000000    -3.128000000    -3.873000000
H    -5.490000000    -2.040000000    -2.871000000
O    -0.098000000    -3.588000000    -5.814000000
H    -0.451000000    -2.764000000    -6.150000000
H    -0.552000000    -3.722000000    -4.982000000
