215
-1475.46077
C    -4.615000000     0.182000000     1.757000000
H    -4.632000000     0.999000000     1.040000000
C    -3.675000000     0.161000000     2.810000000
C    -3.487000000    -0.978000000     3.588000000
H    -2.722000000    -0.998000000     4.360000000
C    -2.704000000     1.318000000     3.051000000
O    -3.284000000     2.616000000     2.672000000
H    -1.880000000     1.211000000     2.330000000
O    -2.082000000     1.398000000     4.368000000
C    -0.710000000     1.547000000     4.343000000
C     0.073000000     0.409000000     4.497000000
H    -0.367000000    -0.578000000     4.616000000
C     1.444000000     0.513000000     4.394000000
O     2.187000000    -0.665000000     4.459000000
C     2.060000000     1.722000000     4.152000000
C     3.549000000     1.843000000     3.940000000
H     3.888000000     2.836000000     4.241000000
C     3.947000000     1.400000000     2.446000000
C     4.076000000     2.457000000     1.513000000
H     4.016000000     3.512000000     1.769000000
H     3.966000000     1.208000000     4.724000000
C     1.264000000     2.877000000     3.989000000
H     1.825000000     3.755000000     3.679000000
C    -0.131000000     2.808000000     4.063000000
C    -1.010000000     4.010000000     3.726000000
H    -0.403000000     4.880000000     3.986000000
H    -1.938000000     4.070000000     4.299000000
C    -1.377000000     4.046000000     2.265000000
C    -0.572000000     4.834000000     1.422000000
H     0.205000000     5.457000000     1.857000000
C    -2.578000000     3.477000000     1.841000000
C    -2.931000000     3.548000000     0.519000000
H    -3.861000000     3.106000000     0.170000000
C    -2.047000000     4.166000000    -0.363000000
O    -2.305000000     3.937000000    -1.675000000
C    -1.640000000     2.916000000    -2.456000000
C    -2.608000000     2.135000000    -3.340000000
C    -2.088000000     1.370000000    -4.383000000
H    -1.105000000     1.557000000    -4.808000000
C    -3.976000000     2.114000000    -3.048000000
H    -4.430000000     2.751000000    -2.294000000
O    -0.574000000     3.513000000    -3.192000000
H    -1.160000000     2.191000000    -1.783000000
C    -0.881000000     4.916000000     0.058000000
C     0.102000000     5.510000000    -0.919000000
H     0.702000000     6.303000000    -0.469000000
H    -0.503000000     6.013000000    -1.676000000
C     1.046000000     4.452000000    -1.599000000
C     2.349000000     4.369000000    -1.125000000
H     2.589000000     4.993000000    -0.267000000
C     0.693000000     3.589000000    -2.653000000
C     1.604000000     2.699000000    -3.213000000
H     1.297000000     1.999000000    -3.986000000
C     2.933000000     2.550000000    -2.729000000
O     3.729000000     1.546000000    -3.164000000
C     3.593000000     0.346000000    -2.409000000
C     3.529000000    -0.931000000    -3.261000000
C     2.513000000    -1.034000000    -4.230000000
H     1.846000000    -0.215000000    -4.487000000
C     4.198000000    -2.120000000    -2.890000000
H     4.937000000    -2.117000000    -2.093000000
O     4.764000000     0.323000000    -1.518000000
H     2.631000000     0.224000000    -1.889000000
C     3.258000000     3.367000000    -1.591000000
C     4.592000000     3.210000000    -0.855000000
H     4.890000000     4.151000000    -0.389000000
H     5.247000000     2.964000000    -1.693000000
C     4.449000000     2.135000000     0.179000000
C     4.525000000     0.784000000    -0.194000000
C     4.346000000    -0.198000000     0.705000000
H     4.345000000    -1.234000000     0.377000000
C     4.094000000     0.091000000     2.029000000
O     3.891000000    -0.969000000     2.917000000
C     2.515000000    -1.236000000     3.155000000
H     1.868000000    -0.773000000     2.396000000
C     2.243000000    -2.701000000     3.129000000
C     1.211000000    -3.328000000     3.806000000
H     0.524000000    -2.822000000     4.480000000
C     2.980000000    -3.479000000     2.187000000
H     3.643000000    -2.981000000     1.484000000
C     2.772000000    -4.831000000     2.043000000
O     3.347000000    -5.645000000     1.113000000
C     1.797000000    -5.461000000     2.767000000
H     1.624000000    -6.533000000     2.815000000
C     0.988000000    -4.704000000     3.638000000
O    -0.063000000    -5.412000000     4.205000000
C    -1.078000000    -4.747000000     4.878000000
C    -2.281000000    -4.340000000     4.253000000
H    -2.347000000    -4.616000000     3.204000000
C    -0.885000000    -4.396000000     6.231000000
H    -0.012000000    -4.708000000     6.799000000
C    -1.874000000    -3.656000000     6.901000000
H    -1.714000000    -3.369000000     7.938000000
C    -3.089000000    -3.291000000     6.279000000
H    -3.915000000    -2.799000000     6.784000000
C    -3.275000000    -3.665000000     4.952000000
O    -4.355000000    -3.235000000     4.218000000
C    -4.336000000    -2.063000000     3.425000000
C    -5.314000000    -2.085000000     2.421000000
H    -5.964000000    -2.955000000     2.392000000
C    -5.415000000    -0.942000000     1.575000000
O    -6.431000000    -0.974000000     0.631000000
C    -6.859000000     0.068000000    -0.184000000
C    -6.348000000     0.218000000    -1.461000000
H    -5.513000000    -0.408000000    -1.766000000
C    -7.867000000     0.952000000     0.251000000
H    -8.316000000     0.872000000     1.238000000
C    -8.335000000     2.006000000    -0.574000000
H    -9.103000000     2.729000000    -0.311000000
C    -7.779000000     2.155000000    -1.836000000
H    -8.136000000     2.960000000    -2.473000000
C    -6.819000000     1.215000000    -2.332000000
O    -6.204000000     1.385000000    -3.597000000
C    -4.826000000     1.310000000    -3.821000000
C    -4.324000000     0.605000000    -4.904000000
H    -5.082000000     0.124000000    -5.517000000
C    -2.987000000     0.725000000    -5.221000000
O    -2.572000000     0.114000000    -6.410000000
C    -1.215000000    -0.062000000    -6.692000000
C    -0.601000000    -1.135000000    -6.185000000
H    -1.283000000    -1.803000000    -5.665000000
C    -0.569000000     0.993000000    -7.349000000
H    -1.110000000     1.855000000    -7.732000000
C     0.773000000     0.833000000    -7.579000000
H     1.445000000     1.526000000    -8.079000000
C     1.441000000    -0.363000000    -7.168000000
H     2.505000000    -0.537000000    -7.308000000
C     0.741000000    -1.316000000    -6.389000000
O     1.405000000    -2.382000000    -5.923000000
C     2.339000000    -2.223000000    -4.967000000
C     3.049000000    -3.357000000    -4.602000000
H     2.993000000    -4.281000000    -5.172000000
C     4.001000000    -3.304000000    -3.639000000
O     4.622000000    -4.488000000    -3.350000000
C     4.878000000    -4.658000000    -1.992000000
C     6.241000000    -4.643000000    -1.567000000
H     6.956000000    -4.542000000    -2.380000000
C     6.568000000    -4.809000000    -0.238000000
H     7.596000000    -4.659000000     0.082000000
C     5.532000000    -4.942000000     0.700000000
H     5.758000000    -4.904000000     1.763000000
C     4.236000000    -5.190000000     0.227000000
C     3.888000000    -5.037000000    -1.068000000
H     2.852000000    -5.153000000    -1.374000000
C    -0.900000000    -1.941000000    -0.001000000
H    -1.348000000    -2.655000000     0.685000000
C    -0.324000000    -0.849000000     0.610000000
H    -0.421000000    -0.702000000     1.683000000
C     0.119000000     0.119000000    -0.265000000
H     0.553000000     0.982000000     0.202000000
C     0.130000000    -0.107000000    -1.659000000
H     0.437000000     0.747000000    -2.257000000
C    -0.407000000    -1.242000000    -2.211000000
H    -0.372000000    -1.436000000    -3.279000000
C    -0.917000000    -2.180000000    -1.392000000
C    -1.475000000    -3.421000000    -2.013000000
O    -1.132000000    -3.773000000    -3.119000000
O    -2.132000000    -4.232000000    -1.394000000
O    -7.385000000    -0.731000000    -4.846000000
H    -6.994000000     0.135000000    -4.732000000
H    -7.060000000    -1.239000000    -4.102000000
O    -4.050000000    -3.349000000    -5.746000000
H    -4.981000000    -3.569000000    -5.774000000
H    -3.798000000    -3.489000000    -4.833000000
O     0.537000000    -7.063000000    -2.981000000
H     1.024000000    -6.847000000    -3.776000000
H     0.263000000    -6.216000000    -2.630000000
O    -1.814000000    -7.602000000     1.374000000
H    -2.452000000    -7.748000000     2.073000000
H    -1.029000000    -8.066000000     1.665000000
O    -7.173000000    -6.430000000    -2.323000000
H    -7.575000000    -5.566000000    -2.238000000
H    -6.790000000    -6.602000000    -1.463000000
O    -3.480000000    -5.086000000     0.852000000
H    -3.126000000    -4.640000000     0.083000000
H    -3.200000000    -5.996000000     0.752000000
O    -6.825000000    -2.866000000    -2.753000000
H    -5.914000000    -3.160000000    -2.748000000
H    -7.170000000    -3.140000000    -1.904000000
O    -4.808000000    -8.410000000    -0.197000000
H    -4.078000000    -8.324000000    -0.810000000
H    -4.422000000    -8.816000000     0.580000000
O     2.094000000    -7.744000000     0.112000000
H     3.004000000    -7.481000000    -0.027000000
H     1.587000000    -6.949000000    -0.056000000
O    -0.883000000    -6.889000000    -6.985000000
H    -1.792000000    -7.179000000    -7.057000000
H    -0.933000000    -6.057000000    -6.515000000
O    -0.218000000    -6.070000000    -0.326000000
H    -0.735000000    -6.449000000     0.385000000
H    -0.851000000    -5.573000000    -0.844000000
O    -1.294000000    -9.251000000    -3.269000000
H    -0.871000000    -8.486000000    -2.878000000
H    -1.637000000    -9.742000000    -2.522000000
O    -7.918000000    -4.187000000    -0.858000000
H    -7.159000000    -4.513000000    -0.375000000
H    -8.402000000    -3.664000000    -0.219000000
O    -2.354000000    -6.503000000    -3.410000000
H    -2.363000000    -5.684000000    -2.915000000
H    -1.425000000    -6.699000000    -3.532000000
O    -3.596000000    -7.843000000    -5.269000000
H    -3.101000000    -7.550000000    -4.504000000
H    -4.494000000    -7.559000000    -5.097000000
O    -1.963000000    -4.038000000    -7.648000000
H    -2.863000000    -4.035000000    -7.321000000
H    -1.437000000    -4.314000000    -6.898000000
O    -0.433000000    -4.690000000    -5.565000000
H     0.304000000    -4.092000000    -5.440000000
H    -0.943000000    -4.614000000    -4.759000000
O    -6.356000000    -6.001000000     0.339000000
H    -5.409000000    -5.867000000     0.369000000
H    -6.547000000    -6.534000000     1.111000000
O    -4.501000000    -4.333000000    -2.839000000
H    -3.699000000    -4.200000000    -2.333000000
H    -4.562000000    -5.282000000    -2.946000000
