215
-1468.95577
C    -5.101000000     0.695000000     1.633000000
H    -5.204000000     1.722000000     1.291000000
C    -4.024000000     0.408000000     2.483000000
C    -3.752000000    -0.923000000     2.871000000
H    -2.875000000    -1.116000000     3.484000000
C    -2.953000000     1.495000000     2.702000000
O    -3.381000000     2.827000000     2.506000000
H    -2.072000000     1.311000000     2.069000000
O    -2.396000000     1.523000000     4.030000000
C    -1.048000000     1.435000000     4.089000000
C    -0.398000000     0.217000000     4.229000000
H    -1.044000000    -0.656000000     4.259000000
C     0.977000000     0.154000000     4.230000000
O     1.496000000    -1.109000000     4.326000000
C     1.761000000     1.302000000     4.243000000
C     3.297000000     1.184000000     4.220000000
H     3.657000000     2.130000000     4.629000000
C     3.941000000     0.955000000     2.917000000
C     4.173000000     2.046000000     2.011000000
H     4.006000000     3.056000000     2.378000000
H     3.534000000     0.350000000     4.883000000
C     1.085000000     2.509000000     4.299000000
H     1.614000000     3.451000000     4.416000000
C    -0.337000000     2.575000000     4.149000000
C    -0.971000000     3.989000000     3.968000000
H    -0.282000000     4.791000000     4.238000000
H    -1.941000000     4.113000000     4.453000000
C    -1.285000000     4.173000000     2.475000000
C    -0.398000000     4.816000000     1.630000000
H     0.495000000     5.306000000     2.010000000
C    -2.522000000     3.719000000     1.963000000
C    -2.780000000     3.823000000     0.546000000
H    -3.736000000     3.462000000     0.177000000
C    -1.797000000     4.385000000    -0.294000000
O    -2.058000000     4.389000000    -1.647000000
C    -1.353000000     3.360000000    -2.389000000
C    -2.253000000     2.781000000    -3.529000000
C    -1.671000000     2.029000000    -4.563000000
H    -0.589000000     1.981000000    -4.656000000
C    -3.620000000     2.734000000    -3.385000000
H    -4.067000000     3.278000000    -2.557000000
O    -0.177000000     3.910000000    -3.037000000
H    -1.027000000     2.534000000    -1.739000000
C    -0.607000000     4.892000000     0.240000000
C     0.431000000     5.565000000    -0.668000000
H     0.890000000     6.351000000    -0.064000000
H    -0.136000000     6.068000000    -1.454000000
C     1.424000000     4.563000000    -1.306000000
C     2.707000000     4.370000000    -0.753000000
H     3.067000000     4.964000000     0.083000000
C     1.012000000     3.772000000    -2.399000000
C     1.881000000     2.859000000    -2.903000000
H     1.623000000     2.236000000    -3.756000000
C     3.042000000     2.461000000    -2.202000000
O     3.671000000     1.341000000    -2.607000000
C     3.734000000     0.099000000    -1.802000000
C     3.645000000    -1.206000000    -2.582000000
C     2.746000000    -1.253000000    -3.611000000
H     2.137000000    -0.374000000    -3.804000000
C     4.474000000    -2.260000000    -2.335000000
H     5.226000000    -2.253000000    -1.550000000
O     4.922000000     0.201000000    -1.043000000
H     2.820000000     0.091000000    -1.190000000
C     3.488000000     3.233000000    -1.133000000
C     4.690000000     2.985000000    -0.275000000
H     4.995000000     3.841000000     0.331000000
H     5.549000000     2.704000000    -0.887000000
C     4.508000000     1.807000000     0.674000000
C     4.750000000     0.472000000     0.297000000
C     4.529000000    -0.595000000     1.192000000
H     4.453000000    -1.612000000     0.816000000
C     4.135000000    -0.389000000     2.527000000
O     3.601000000    -1.434000000     3.161000000
C     2.178000000    -1.617000000     3.097000000
H     1.825000000    -1.102000000     2.191000000
C     1.794000000    -3.145000000     2.977000000
C     0.615000000    -3.755000000     3.488000000
H    -0.005000000    -3.185000000     4.176000000
C     2.632000000    -3.968000000     2.205000000
H     3.557000000    -3.588000000     1.779000000
C     2.298000000    -5.324000000     1.961000000
O     2.973000000    -6.051000000     1.040000000
C     1.159000000    -5.916000000     2.570000000
H     0.954000000    -6.946000000     2.291000000
C     0.340000000    -5.129000000     3.392000000
O    -0.769000000    -5.684000000     4.060000000
C    -1.890000000    -4.893000000     4.425000000
C    -2.787000000    -4.442000000     3.481000000
H    -2.525000000    -4.623000000     2.442000000
C    -2.159000000    -4.597000000     5.820000000
H    -1.412000000    -4.897000000     6.550000000
C    -3.273000000    -3.898000000     6.210000000
H    -3.464000000    -3.693000000     7.260000000
C    -4.123000000    -3.420000000     5.189000000
H    -4.957000000    -2.729000000     5.285000000
C    -3.948000000    -3.765000000     3.848000000
O    -4.755000000    -3.208000000     2.900000000
C    -4.753000000    -1.866000000     2.531000000
C    -5.880000000    -1.513000000     1.762000000
H    -6.707000000    -2.201000000     1.601000000
C    -6.007000000    -0.256000000     1.218000000
O    -6.983000000     0.086000000     0.321000000
C    -6.874000000     1.129000000    -0.599000000
C    -6.240000000     0.901000000    -1.817000000
H    -5.794000000    -0.053000000    -2.086000000
C    -7.694000000     2.257000000    -0.347000000
H    -8.240000000     2.335000000     0.590000000
C    -7.822000000     3.245000000    -1.312000000
H    -8.284000000     4.211000000    -1.128000000
C    -7.130000000     3.024000000    -2.516000000
H    -7.229000000     3.859000000    -3.204000000
C    -6.308000000     1.941000000    -2.731000000
O    -5.718000000     1.636000000    -3.936000000
C    -4.406000000     1.980000000    -4.251000000
C    -3.828000000     1.204000000    -5.234000000
H    -4.413000000     0.508000000    -5.830000000
C    -2.466000000     1.283000000    -5.423000000
O    -1.892000000     0.573000000    -6.465000000
C    -0.559000000     0.216000000    -6.581000000
C    -0.075000000    -0.938000000    -5.966000000
H    -0.686000000    -1.655000000    -5.422000000
C     0.213000000     0.956000000    -7.402000000
H    -0.235000000     1.787000000    -7.941000000
C     1.543000000     0.607000000    -7.652000000
H     2.146000000     1.278000000    -8.258000000
C     2.055000000    -0.551000000    -7.043000000
H     3.113000000    -0.748000000    -7.198000000
C     1.280000000    -1.256000000    -6.131000000
O     1.877000000    -2.393000000    -5.601000000
C     2.718000000    -2.307000000    -4.526000000
C     3.506000000    -3.411000000    -4.264000000
H     3.414000000    -4.248000000    -4.951000000
C     4.306000000    -3.383000000    -3.128000000
O     5.038000000    -4.495000000    -2.945000000
C     5.131000000    -4.959000000    -1.598000000
C     6.367000000    -5.282000000    -1.033000000
H     7.279000000    -5.257000000    -1.625000000
C     6.491000000    -5.525000000     0.367000000
H     7.471000000    -5.671000000     0.815000000
C     5.281000000    -5.770000000     1.050000000
H     5.357000000    -6.206000000     2.043000000
C     4.093000000    -5.644000000     0.418000000
C     3.981000000    -5.295000000    -0.885000000
H     3.004000000    -5.156000000    -1.342000000
C    -0.359000000    -2.996000000    -0.073000000
H    -0.580000000    -3.923000000     0.449000000
C    -0.178000000    -1.784000000     0.578000000
H    -0.174000000    -1.799000000     1.665000000
C     0.049000000    -0.588000000    -0.171000000
H     0.077000000     0.391000000     0.346000000
C     0.188000000    -0.705000000    -1.562000000
H     0.287000000     0.220000000    -2.124000000
C     0.032000000    -1.873000000    -2.185000000
H     0.013000000    -1.945000000    -3.269000000
C    -0.299000000    -3.022000000    -1.480000000
C    -0.527000000    -4.321000000    -2.220000000
O    -0.742000000    -4.322000000    -3.392000000
O    -0.439000000    -5.379000000    -1.602000000
O    -3.455000000    -4.396000000    -7.594000000
H    -4.154000000    -5.008000000    -7.828000000
H    -3.835000000    -3.530000000    -7.743000000
O     2.192000000    -7.250000000    -6.154000000
H     1.475000000    -6.652000000    -5.944000000
H     2.665000000    -6.817000000    -6.865000000
O     0.817000000    -7.473000000    -2.990000000
H     1.772000000    -7.540000000    -2.996000000
H     0.643000000    -6.564000000    -2.745000000
O    -4.082000000    -6.265000000    -5.023000000
H    -3.875000000    -5.558000000    -5.634000000
H    -3.256000000    -6.443000000    -4.574000000
O    -3.459000000    -5.195000000    -0.815000000
H    -2.597000000    -5.398000000    -1.179000000
H    -3.665000000    -5.946000000    -0.257000000
O    -5.405000000    -2.154000000    -4.890000000
H    -4.605000000    -2.274000000    -4.378000000
H    -5.909000000    -2.953000000    -4.738000000
O    -3.714000000    -7.699000000     0.236000000
H    -3.685000000    -8.465000000    -0.337000000
H    -2.899000000    -7.743000000     0.737000000
O    -1.783000000    -8.926000000     1.923000000
H    -1.217000000    -8.825000000     1.157000000
H    -2.019000000    -9.853000000     1.925000000
O    -0.078000000    -7.727000000    -0.130000000
H     0.804000000    -8.080000000    -0.243000000
H    -0.161000000    -7.067000000    -0.819000000
O     3.522000000    -8.526000000    -4.449000000
H     3.804000000    -9.313000000    -4.916000000
H     3.058000000    -8.009000000    -5.108000000
O     0.226000000   -10.020000000    -3.653000000
H     1.120000000   -10.305000000    -3.462000000
H     0.206000000    -9.101000000    -3.386000000
O     2.250000000    -9.453000000    -0.527000000
H     1.965000000    -9.873000000    -1.338000000
H     3.056000000    -8.995000000    -0.764000000
O    -1.775000000    -6.937000000    -3.665000000
H    -1.390000000    -6.172000000    -3.236000000
H    -1.022000000    -7.442000000    -3.973000000
O    -2.871000000    -9.419000000    -4.638000000
H    -1.982000000    -9.736000000    -4.800000000
H    -2.749000000    -8.600000000    -4.157000000
O    -0.999000000    -5.524000000    -8.062000000
H    -1.831000000    -5.060000000    -7.968000000
H    -0.673000000    -5.615000000    -7.167000000
O     0.527000000    -5.245000000    -5.616000000
H     1.047000000    -4.450000000    -5.730000000
H     0.023000000    -5.090000000    -4.817000000
O    -5.470000000    -4.973000000     0.996000000
H    -5.109000000    -4.329000000     1.606000000
H    -5.058000000    -4.766000000     0.157000000
O    -5.715000000    -4.767000000    -3.252000000
H    -5.022000000    -4.365000000    -2.728000000
H    -5.296000000    -5.523000000    -3.663000000
O    -2.947000000    -2.615000000    -3.721000000
H    -2.361000000    -3.293000000    -4.055000000
H    -2.616000000    -2.422000000    -2.844000000
