215
-1465.46649
C    -4.981000000     1.551000000     1.648000000
H    -4.676000000     2.247000000     0.871000000
C    -4.173000000     1.392000000     2.759000000
C    -4.486000000     0.396000000     3.714000000
H    -3.885000000     0.318000000     4.616000000
C    -2.766000000     2.146000000     2.825000000
O    -2.812000000     3.547000000     2.361000000
H    -2.052000000     1.637000000     2.161000000
O    -2.216000000     2.212000000     4.170000000
C    -0.909000000     1.982000000     4.331000000
C    -0.475000000     0.685000000     4.645000000
H    -1.179000000    -0.122000000     4.834000000
C     0.879000000     0.379000000     4.586000000
O     1.262000000    -0.860000000     4.728000000
C     1.807000000     1.389000000     4.324000000
C     3.266000000     1.018000000     4.142000000
H     3.881000000     1.909000000     4.289000000
C     3.747000000     0.470000000     2.754000000
C     4.390000000     1.336000000     1.842000000
H     4.485000000     2.382000000     2.123000000
H     3.576000000     0.229000000     4.830000000
C     1.386000000     2.690000000     4.081000000
H     2.041000000     3.471000000     3.705000000
C     0.061000000     2.978000000     4.098000000
C    -0.450000000     4.367000000     3.598000000
H     0.281000000     5.161000000     3.764000000
H    -1.447000000     4.637000000     3.953000000
C    -0.640000000     4.354000000     2.059000000
C     0.451000000     4.643000000     1.261000000
H     1.457000000     4.770000000     1.653000000
C    -1.864000000     3.972000000     1.525000000
C    -1.950000000     3.895000000     0.144000000
H    -2.893000000     3.546000000    -0.268000000
C    -0.872000000     4.164000000    -0.692000000
O    -1.079000000     3.895000000    -2.021000000
C    -0.321000000     2.897000000    -2.676000000
C    -1.199000000     2.050000000    -3.594000000
C    -0.684000000     1.367000000    -4.660000000
H     0.397000000     1.352000000    -4.770000000
C    -2.585000000     1.959000000    -3.391000000
H    -2.930000000     2.589000000    -2.575000000
O     0.742000000     3.492000000    -3.311000000
H     0.140000000     2.261000000    -1.905000000
C     0.331000000     4.597000000    -0.159000000
C     1.525000000     5.100000000    -1.109000000
H     2.113000000     5.868000000    -0.602000000
H     1.041000000     5.575000000    -1.964000000
C     2.389000000     3.982000000    -1.652000000
C     3.458000000     3.547000000    -0.798000000
H     3.638000000     4.133000000     0.099000000
C     1.968000000     3.257000000    -2.766000000
C     2.689000000     2.203000000    -3.224000000
H     2.337000000     1.573000000    -4.036000000
C     3.793000000     1.843000000    -2.412000000
O     4.326000000     0.636000000    -2.723000000
C     3.736000000    -0.495000000    -2.132000000
C     3.522000000    -1.646000000    -3.103000000
C     3.457000000    -1.447000000    -4.480000000
H     3.528000000    -0.445000000    -4.896000000
C     3.228000000    -2.870000000    -2.550000000
H     3.214000000    -3.078000000    -1.483000000
O     4.583000000    -0.999000000    -1.008000000
H     2.742000000    -0.214000000    -1.756000000
C     4.210000000     2.433000000    -1.217000000
C     5.323000000     1.877000000    -0.321000000
H     5.931000000     2.656000000     0.143000000
H     5.994000000     1.332000000    -0.990000000
C     4.751000000     0.890000000     0.636000000
C     4.459000000    -0.440000000     0.228000000
C     3.891000000    -1.325000000     1.139000000
H     3.588000000    -2.320000000     0.821000000
C     3.572000000    -0.889000000     2.410000000
O     3.010000000    -1.800000000     3.289000000
C     1.620000000    -1.721000000     3.529000000
H     1.086000000    -1.302000000     2.664000000
C     0.980000000    -3.081000000     3.540000000
C    -0.203000000    -3.235000000     4.238000000
H    -0.527000000    -2.572000000     5.036000000
C     1.416000000    -4.030000000     2.584000000
H     2.215000000    -3.644000000     1.956000000
C     0.679000000    -5.152000000     2.409000000
O     0.979000000    -6.156000000     1.494000000
C    -0.516000000    -5.344000000     3.101000000
H    -1.122000000    -6.228000000     2.923000000
C    -0.981000000    -4.419000000     4.022000000
O    -2.081000000    -4.763000000     4.781000000
C    -2.848000000    -3.747000000     5.312000000
C    -3.832000000    -3.137000000     4.582000000
H    -3.998000000    -3.360000000     3.531000000
C    -2.724000000    -3.327000000     6.641000000
H    -2.002000000    -3.783000000     7.313000000
C    -3.543000000    -2.411000000     7.221000000
H    -3.526000000    -2.167000000     8.280000000
C    -4.514000000    -1.729000000     6.422000000
H    -5.183000000    -1.043000000     6.935000000
C    -4.672000000    -2.112000000     5.094000000
O    -5.706000000    -1.584000000     4.289000000
C    -5.529000000    -0.484000000     3.561000000
C    -6.371000000    -0.286000000     2.453000000
H    -7.112000000    -1.074000000     2.344000000
C    -6.125000000     0.756000000     1.529000000
O    -7.005000000     0.933000000     0.461000000
C    -6.635000000     1.618000000    -0.738000000
C    -5.900000000     0.951000000    -1.731000000
H    -5.692000000    -0.084000000    -1.475000000
C    -6.911000000     3.015000000    -0.817000000
H    -7.446000000     3.541000000    -0.030000000
C    -6.510000000     3.618000000    -2.070000000
H    -6.743000000     4.680000000    -2.093000000
C    -5.838000000     2.939000000    -3.051000000
H    -5.521000000     3.422000000    -3.972000000
C    -5.466000000     1.624000000    -2.835000000
O    -4.729000000     1.021000000    -3.883000000
C    -3.397000000     1.137000000    -4.100000000
C    -2.898000000     0.460000000    -5.174000000
H    -3.585000000    -0.080000000    -5.819000000
C    -1.511000000     0.594000000    -5.486000000
O    -1.026000000     0.011000000    -6.582000000
C     0.276000000    -0.059000000    -6.974000000
C     0.911000000    -1.247000000    -6.721000000
H     0.412000000    -2.008000000    -6.125000000
C     0.911000000     0.984000000    -7.677000000
H     0.449000000     1.959000000    -7.812000000
C     2.180000000     0.859000000    -8.130000000
H     2.675000000     1.644000000    -8.695000000
C     2.879000000    -0.316000000    -7.853000000
H     3.910000000    -0.452000000    -8.169000000
C     2.255000000    -1.357000000    -7.117000000
O     3.034000000    -2.407000000    -6.653000000
C     3.060000000    -2.555000000    -5.233000000
C     2.947000000    -3.811000000    -4.756000000
H     2.803000000    -4.667000000    -5.411000000
C     2.980000000    -3.981000000    -3.390000000
O     2.861000000    -5.272000000    -2.851000000
C     2.951000000    -5.546000000    -1.510000000
C     4.212000000    -5.844000000    -0.993000000
H     5.014000000    -5.770000000    -1.722000000
C     4.381000000    -6.161000000     0.356000000
H     5.365000000    -6.293000000     0.798000000
C     3.292000000    -6.349000000     1.177000000
H     3.459000000    -6.447000000     2.246000000
C     2.023000000    -6.099000000     0.638000000
C     1.847000000    -5.694000000    -0.676000000
H     0.827000000    -5.625000000    -1.045000000
C    -1.858000000    -2.231000000     1.249000000
H    -2.725000000    -2.382000000     1.887000000
C    -1.088000000    -1.081000000     1.312000000
H    -1.390000000    -0.258000000     1.955000000
C    -0.074000000    -0.896000000     0.435000000
H     0.435000000     0.036000000     0.502000000
C     0.299000000    -1.954000000    -0.409000000
H     1.086000000    -1.815000000    -1.146000000
C    -0.457000000    -3.148000000    -0.467000000
H    -0.281000000    -3.911000000    -1.221000000
C    -1.593000000    -3.290000000     0.398000000
C    -2.621000000    -4.393000000     0.198000000
O    -2.378000000    -5.293000000    -0.576000000
O    -3.751000000    -4.241000000     0.538000000
O    -6.146000000    -8.963000000    -1.915000000
H    -5.880000000    -9.281000000    -2.777000000
H    -5.337000000    -8.640000000    -1.519000000
O    -2.409000000    -3.345000000    -4.159000000
H    -3.365000000    -3.380000000    -4.190000000
H    -2.144000000    -3.215000000    -5.070000000
O    -3.760000000    -7.449000000    -0.858000000
H    -3.474000000    -7.232000000    -1.745000000
H    -3.475000000    -6.706000000    -0.326000000
O    -1.099000000    -9.686000000    -2.479000000
H    -1.627000000   -10.224000000    -1.889000000
H    -0.581000000    -9.130000000    -1.896000000
O    -7.479000000    -2.454000000    -2.384000000
H    -6.736000000    -2.402000000    -1.783000000
H    -8.120000000    -2.998000000    -1.926000000
O    -2.681000000    -9.989000000     1.951000000
H    -2.870000000    -9.815000000     2.873000000
H    -2.245000000    -9.194000000     1.642000000
O    -7.064000000    -4.148000000     3.528000000
H    -7.108000000    -3.678000000     2.696000000
H    -6.220000000    -4.600000000     3.504000000
O    -7.995000000    -6.218000000     0.357000000
H    -7.853000000    -7.058000000     0.794000000
H    -7.179000000    -6.053000000    -0.115000000
O    -5.064000000    -2.281000000    -0.523000000
H    -4.392000000    -1.843000000    -1.046000000
H    -4.632000000    -3.066000000    -0.186000000
O    -4.826000000    -6.056000000     2.366000000
H    -5.111000000    -6.831000000     1.882000000
H    -4.534000000    -5.445000000     1.690000000
O    -5.849000000    -5.424000000    -1.028000000
H    -5.170000000    -4.860000000    -0.658000000
H    -5.479000000    -6.306000000    -0.983000000
O     0.557000000    -5.995000000    -4.676000000
H     1.094000000    -6.374000000    -3.980000000
H    -0.221000000    -5.666000000    -4.226000000
O    -1.301000000    -8.008000000     0.925000000
H    -0.372000000    -7.856000000     0.752000000
H    -1.755000000    -7.543000000     0.222000000
O    -3.341000000    -7.968000000    -3.826000000
H    -2.679000000    -7.323000000    -4.076000000
H    -2.852000000    -8.785000000    -3.725000000
O    -2.884000000    -1.588000000    -2.036000000
H    -2.627000000    -2.177000000    -2.745000000
H    -2.056000000    -1.291000000    -1.660000000
O    -1.597000000    -5.599000000    -3.020000000
H    -1.719000000    -5.435000000    -2.085000000
H    -2.001000000    -4.846000000    -3.451000000
O    -5.090000000    -4.279000000    -4.794000000
H    -5.565000000    -4.071000000    -5.598000000
H    -5.769000000    -4.554000000    -4.178000000
O    -3.933000000    -7.070000000     4.841000000
H    -4.344000000    -6.701000000     4.059000000
H    -3.636000000    -6.307000000     5.337000000
O    -7.720000000    -2.839000000     0.721000000
H    -7.574000000    -3.611000000     0.174000000
H    -7.006000000    -2.244000000     0.491000000
