215
-1458.43785
C    -4.915000000     1.635000000     1.294000000
H    -4.808000000     2.654000000     0.932000000
C    -3.993000000     1.203000000     2.241000000
C    -4.202000000    -0.019000000     2.859000000
H    -3.428000000    -0.452000000     3.488000000
C    -2.787000000     2.030000000     2.643000000
O    -2.979000000     3.456000000     2.509000000
H    -1.882000000     1.692000000     2.117000000
O    -2.381000000     1.877000000     4.040000000
C    -1.045000000     1.798000000     4.231000000
C    -0.616000000     0.461000000     4.358000000
H    -1.323000000    -0.363000000     4.411000000
C     0.734000000     0.202000000     4.475000000
O     1.086000000    -1.131000000     4.537000000
C     1.722000000     1.130000000     4.407000000
C     3.184000000     0.671000000     4.416000000
H     3.834000000     1.433000000     4.851000000
C     3.753000000     0.298000000     3.057000000
C     4.345000000     1.266000000     2.260000000
H     4.450000000     2.261000000     2.684000000
H     3.355000000    -0.139000000     5.128000000
C     1.207000000     2.464000000     4.306000000
H     1.918000000     3.284000000     4.374000000
C    -0.112000000     2.812000000     4.159000000
C    -0.579000000     4.219000000     3.863000000
H     0.096000000     4.940000000     4.328000000
H    -1.552000000     4.438000000     4.309000000
C    -0.819000000     4.377000000     2.363000000
C     0.256000000     4.789000000     1.515000000
H     1.181000000     5.019000000     2.036000000
C    -1.968000000     4.003000000     1.705000000
C    -2.097000000     4.069000000     0.357000000
H    -3.053000000     3.883000000    -0.126000000
C    -1.021000000     4.384000000    -0.389000000
O    -1.102000000     4.277000000    -1.795000000
C    -0.444000000     3.180000000    -2.434000000
C    -1.370000000     2.579000000    -3.487000000
C    -0.853000000     2.083000000    -4.669000000
H     0.228000000     2.133000000    -4.769000000
C    -2.796000000     2.400000000    -3.137000000
H    -3.138000000     2.782000000    -2.179000000
O     0.845000000     3.566000000    -3.013000000
H    -0.252000000     2.397000000    -1.686000000
C     0.139000000     4.816000000     0.151000000
C     1.373000000     5.171000000    -0.738000000
H     2.065000000     5.852000000    -0.238000000
H     1.133000000     5.678000000    -1.676000000
C     2.293000000     4.004000000    -1.145000000
C     3.470000000     3.625000000    -0.419000000
H     3.558000000     3.947000000     0.616000000
C     1.965000000     3.229000000    -2.280000000
C     2.802000000     2.311000000    -2.867000000
H     2.486000000     1.650000000    -3.669000000
C     3.930000000     1.967000000    -2.134000000
O     4.605000000     0.797000000    -2.467000000
C     4.205000000    -0.432000000    -1.800000000
C     3.968000000    -1.615000000    -2.781000000
C     3.385000000    -1.448000000    -3.991000000
H     3.189000000    -0.433000000    -4.326000000
C     4.228000000    -2.974000000    -2.483000000
H     4.783000000    -3.218000000    -1.581000000
O     5.088000000    -0.789000000    -0.742000000
H     3.201000000    -0.207000000    -1.410000000
C     4.244000000     2.601000000    -0.903000000
C     5.337000000     2.061000000     0.020000000
H     5.749000000     2.815000000     0.694000000
H     6.221000000     1.665000000    -0.483000000
C     4.755000000     0.973000000     0.937000000
C     4.665000000    -0.313000000     0.490000000
C     4.091000000    -1.268000000     1.325000000
H     4.063000000    -2.287000000     0.947000000
C     3.590000000    -0.995000000     2.585000000
O     2.912000000    -1.998000000     3.228000000
C     1.447000000    -1.887000000     3.335000000
H     1.143000000    -1.270000000     2.477000000
C     0.814000000    -3.274000000     3.222000000
C    -0.429000000    -3.497000000     3.834000000
H    -0.906000000    -2.813000000     4.531000000
C     1.418000000    -4.157000000     2.386000000
H     2.405000000    -3.970000000     1.969000000
C     0.797000000    -5.442000000     2.209000000
O     1.330000000    -6.357000000     1.283000000
C    -0.459000000    -5.700000000     2.750000000
H    -0.988000000    -6.643000000     2.640000000
C    -1.001000000    -4.785000000     3.614000000
O    -2.140000000    -5.219000000     4.270000000
C    -3.093000000    -4.262000000     4.649000000
C    -3.968000000    -3.735000000     3.669000000
H    -3.948000000    -4.042000000     2.627000000
C    -3.174000000    -3.834000000     5.981000000
H    -2.523000000    -4.204000000     6.770000000
C    -3.971000000    -2.774000000     6.291000000
H    -4.109000000    -2.390000000     7.298000000
C    -4.876000000    -2.274000000     5.346000000
H    -5.694000000    -1.635000000     5.669000000
C    -4.810000000    -2.713000000     3.985000000
O    -5.597000000    -2.053000000     3.079000000
C    -5.367000000    -0.810000000     2.607000000
C    -6.314000000    -0.322000000     1.719000000
H    -7.145000000    -0.981000000     1.481000000
C    -6.058000000     0.848000000     0.969000000
O    -7.078000000     1.193000000     0.095000000
C    -6.808000000     2.000000000    -0.888000000
C    -6.136000000     1.426000000    -1.979000000
H    -5.990000000     0.348000000    -1.993000000
C    -7.088000000     3.351000000    -0.905000000
H    -7.652000000     3.819000000    -0.102000000
C    -6.690000000     4.142000000    -2.038000000
H    -6.802000000     5.222000000    -2.002000000
C    -5.899000000     3.546000000    -3.004000000
H    -5.616000000     4.254000000    -3.778000000
C    -5.596000000     2.213000000    -2.988000000
O    -4.888000000     1.639000000    -3.977000000
C    -3.545000000     1.800000000    -4.132000000
C    -2.985000000     1.330000000    -5.310000000
H    -3.571000000     0.872000000    -6.103000000
C    -1.681000000     1.441000000    -5.577000000
O    -1.180000000     0.780000000    -6.649000000
C     0.137000000     0.482000000    -6.749000000
C     0.627000000    -0.708000000    -6.229000000
H     0.000000000    -1.443000000    -5.731000000
C     0.852000000     1.166000000    -7.745000000
H     0.384000000     1.990000000    -8.278000000
C     2.125000000     0.777000000    -7.995000000
H     2.646000000     1.286000000    -8.801000000
C     2.731000000    -0.329000000    -7.354000000
H     3.695000000    -0.672000000    -7.719000000
C     1.884000000    -1.115000000    -6.564000000
O     2.336000000    -2.309000000    -6.035000000
C     2.898000000    -2.516000000    -4.787000000
C     2.934000000    -3.842000000    -4.339000000
H     2.530000000    -4.675000000    -4.908000000
C     3.626000000    -4.069000000    -3.141000000
O     3.857000000    -5.368000000    -2.742000000
C     3.789000000    -5.661000000    -1.379000000
C     4.932000000    -6.203000000    -0.764000000
H     5.879000000    -6.223000000    -1.299000000
C     4.854000000    -6.686000000     0.539000000
H     5.745000000    -6.911000000     1.120000000
C     3.612000000    -6.787000000     1.196000000
H     3.516000000    -7.368000000     2.110000000
C     2.487000000    -6.227000000     0.601000000
C     2.562000000    -5.622000000    -0.658000000
H     1.652000000    -5.309000000    -1.162000000
C    -1.836000000    -2.391000000     0.955000000
H    -2.750000000    -2.515000000     1.531000000
C    -1.105000000    -1.178000000     0.988000000
H    -1.475000000    -0.378000000     1.624000000
C    -0.020000000    -0.908000000     0.141000000
H     0.470000000     0.028000000     0.164000000
C     0.353000000    -1.896000000    -0.790000000
H     1.282000000    -1.727000000    -1.328000000
C    -0.353000000    -3.125000000    -0.809000000
H     0.109000000    -3.837000000    -1.488000000
C    -1.424000000    -3.356000000     0.028000000
C    -2.189000000    -4.656000000    -0.011000000
O    -1.871000000    -5.504000000    -0.846000000
O    -3.289000000    -4.720000000     0.484000000
O    -6.510000000    -8.410000000    -2.898000000
H    -6.580000000    -8.808000000    -3.765000000
H    -5.649000000    -8.680000000    -2.578000000
O    -1.700000000    -3.179000000    -5.707000000
H    -2.162000000    -3.927000000    -5.329000000
H    -1.049000000    -3.570000000    -6.290000000
O    -4.422000000    -7.300000000     0.146000000
H    -4.486000000    -7.310000000    -0.809000000
H    -3.872000000    -6.541000000     0.342000000
O    -1.410000000    -8.484000000    -4.598000000
H    -1.086000000    -7.584000000    -4.562000000
H    -2.069000000    -8.474000000    -5.292000000
O    -5.811000000    -3.029000000    -4.061000000
H    -6.351000000    -3.818000000    -4.116000000
H    -5.361000000    -3.106000000    -3.219000000
O    -2.832000000    -8.966000000     1.178000000
H    -3.626000000    -8.565000000     0.825000000
H    -2.131000000    -8.654000000     0.606000000
O    -8.083000000    -3.440000000     2.268000000
H    -8.482000000    -3.289000000     1.411000000
H    -7.148000000    -3.531000000     2.084000000
O    -7.003000000    -6.061000000    -1.415000000
H    -6.814000000    -6.902000000    -1.830000000
H    -6.237000000    -5.886000000    -0.868000000
O    -3.917000000    -1.696000000    -1.086000000
H    -3.724000000    -1.838000000    -2.013000000
H    -3.120000000    -1.969000000    -0.631000000
O    -5.828000000    -4.841000000     1.156000000
H    -5.959000000    -5.727000000     1.495000000
H    -4.889000000    -4.791000000     0.976000000
O    -3.910000000    -4.878000000    -2.338000000
H    -3.068000000    -5.305000000    -2.174000000
H    -4.165000000    -4.518000000    -1.488000000
O     0.958000000    -6.737000000    -4.914000000
H     1.735000000    -7.169000000    -4.558000000
H     0.668000000    -6.152000000    -4.214000000
O    -0.958000000    -7.878000000    -0.498000000
H    -0.225000000    -7.866000000    -1.113000000
H    -1.355000000    -7.011000000    -0.582000000
O    -3.853000000    -8.484000000    -2.578000000
H    -3.108000000    -7.953000000    -2.861000000
H    -3.904000000    -9.189000000    -3.224000000
O    -2.941000000    -1.988000000    -3.558000000
H    -2.461000000    -2.298000000    -4.326000000
H    -3.412000000    -1.214000000    -3.866000000
O    -0.684000000    -5.277000000    -3.292000000
H    -0.957000000    -4.939000000    -2.439000000
H    -1.467000000    -5.208000000    -3.839000000
O    -3.315000000    -5.562000000    -4.870000000
H    -3.816000000    -6.122000000    -5.463000000
H    -3.972000000    -5.181000000    -4.288000000
O    -4.048000000    -7.242000000     3.574000000
H    -3.830000000    -7.641000000     2.732000000
H    -3.735000000    -6.341000000     3.501000000
O    -6.403000000    -3.090000000    -0.904000000
H    -6.173000000    -3.699000000    -0.202000000
H    -6.030000000    -2.253000000    -0.627000000
