215
-1465.28893
C    -4.702000000     2.737000000     0.069000000
H    -4.287000000     3.459000000    -0.630000000
C    -4.027000000     2.359000000     1.189000000
C    -4.577000000     1.370000000     2.017000000
H    -4.005000000     0.980000000     2.854000000
C    -2.698000000     2.984000000     1.591000000
O    -2.451000000     4.236000000     0.912000000
H    -1.890000000     2.286000000     1.328000000
O    -2.541000000     3.136000000     2.992000000
C    -1.278000000     2.756000000     3.518000000
C    -1.138000000     1.481000000     4.090000000
H    -2.042000000     0.880000000     4.145000000
C     0.069000000     1.018000000     4.583000000
O     0.139000000    -0.227000000     5.085000000
C     1.223000000     1.814000000     4.306000000
C     2.606000000     1.293000000     4.696000000
H     3.214000000     2.193000000     4.814000000
C     3.169000000     0.399000000     3.585000000
C     3.911000000     0.998000000     2.535000000
H     4.081000000     2.070000000     2.593000000
H     2.611000000     0.738000000     5.636000000
C     1.113000000     3.010000000     3.681000000
H     2.066000000     3.493000000     3.484000000
C    -0.121000000     3.551000000     3.282000000
C    -0.184000000     4.886000000     2.620000000
H     0.665000000     5.522000000     2.877000000
H    -1.141000000     5.326000000     2.908000000
C    -0.123000000     4.759000000     1.116000000
C     1.118000000     4.887000000     0.506000000
H     1.999000000     5.184000000     1.071000000
C    -1.214000000     4.429000000     0.345000000
C    -1.060000000     4.112000000    -1.010000000
H    -1.838000000     3.724000000    -1.662000000
C     0.168000000     4.273000000    -1.621000000
O     0.267000000     3.947000000    -2.921000000
C     0.807000000     2.676000000    -3.269000000
C    -0.058000000     1.905000000    -4.233000000
C     0.493000000     0.790000000    -4.851000000
H     1.528000000     0.460000000    -4.811000000
C    -1.475000000     2.177000000    -4.354000000
H    -1.956000000     2.976000000    -3.796000000
O     2.187000000     2.893000000    -3.697000000
H     0.901000000     2.176000000    -2.294000000
C     1.278000000     4.627000000    -0.853000000
C     2.619000000     4.715000000    -1.517000000
H     3.214000000     5.390000000    -0.899000000
H     2.610000000     5.155000000    -2.516000000
C     3.287000000     3.330000000    -1.536000000
C     4.093000000     2.836000000    -0.496000000
H     4.294000000     3.453000000     0.376000000
C     3.069000000     2.558000000    -2.728000000
C     3.560000000     1.291000000    -2.743000000
H     3.352000000     0.673000000    -3.612000000
C     4.224000000     0.743000000    -1.672000000
O     4.558000000    -0.598000000    -1.738000000
C     3.981000000    -1.603000000    -0.908000000
C     3.672000000    -2.933000000    -1.710000000
C     3.844000000    -3.049000000    -3.095000000
H     4.188000000    -2.171000000    -3.634000000
C     3.128000000    -4.027000000    -1.000000000
H     3.122000000    -3.988000000     0.086000000
O     4.682000000    -1.849000000     0.332000000
H     3.019000000    -1.304000000    -0.466000000
C     4.611000000     1.578000000    -0.616000000
C     5.380000000     1.035000000     0.621000000
H     5.862000000     1.891000000     1.097000000
H     6.191000000     0.418000000     0.227000000
C     4.505000000     0.295000000     1.539000000
C     4.336000000    -1.094000000     1.437000000
C     3.577000000    -1.677000000     2.461000000
H     3.419000000    -2.747000000     2.351000000
C     2.953000000    -0.957000000     3.515000000
O     2.048000000    -1.611000000     4.352000000
C     0.634000000    -1.266000000     4.231000000
H     0.576000000    -0.775000000     3.249000000
C    -0.271000000    -2.513000000     4.221000000
C    -1.594000000    -2.408000000     4.621000000
H    -1.849000000    -1.450000000     5.066000000
C     0.179000000    -3.724000000     3.780000000
H     1.245000000    -3.780000000     3.574000000
C    -0.696000000    -4.835000000     3.567000000
O    -0.239000000    -6.008000000     2.960000000
C    -2.010000000    -4.652000000     3.881000000
H    -2.612000000    -5.545000000     3.729000000
C    -2.495000000    -3.497000000     4.444000000
O    -3.742000000    -3.435000000     4.940000000
C    -4.603000000    -2.308000000     4.911000000
C    -4.950000000    -1.716000000     3.731000000
H    -4.521000000    -2.066000000     2.796000000
C    -5.260000000    -1.942000000     6.048000000
H    -4.949000000    -2.350000000     7.006000000
C    -6.235000000    -0.976000000     5.999000000
H    -6.764000000    -0.674000000     6.900000000
C    -6.600000000    -0.370000000     4.827000000
H    -7.407000000     0.352000000     4.923000000
C    -5.919000000    -0.715000000     3.637000000
O    -6.318000000    -0.261000000     2.432000000
C    -5.819000000     0.834000000     1.767000000
C    -6.472000000     1.208000000     0.582000000
H    -7.419000000     0.704000000     0.407000000
C    -5.928000000     2.119000000    -0.274000000
O    -6.632000000     2.561000000    -1.404000000
C    -6.038000000     2.845000000    -2.585000000
C    -5.158000000     1.992000000    -3.238000000
H    -5.003000000     0.969000000    -2.904000000
C    -6.378000000     4.076000000    -3.199000000
H    -7.106000000     4.724000000    -2.716000000
C    -5.871000000     4.436000000    -4.476000000
H    -6.221000000     5.318000000    -5.008000000
C    -4.995000000     3.547000000    -5.122000000
H    -4.611000000     3.817000000    -6.102000000
C    -4.637000000     2.356000000    -4.491000000
O    -3.786000000     1.500000000    -5.163000000
C    -2.343000000     1.300000000    -5.014000000
C    -1.772000000     0.155000000    -5.567000000
H    -2.485000000    -0.471000000    -6.099000000
C    -0.361000000    -0.076000000    -5.511000000
O     0.134000000    -1.135000000    -6.230000000
C     1.486000000    -1.505000000    -6.231000000
C     1.886000000    -2.806000000    -5.822000000
H     1.254000000    -3.415000000    -5.180000000
C     2.428000000    -0.648000000    -6.893000000
H     2.165000000     0.325000000    -7.300000000
C     3.744000000    -1.059000000    -7.086000000
H     4.509000000    -0.414000000    -7.509000000
C     4.169000000    -2.313000000    -6.600000000
H     5.123000000    -2.719000000    -6.926000000
C     3.214000000    -3.183000000    -5.985000000
O     3.647000000    -4.243000000    -5.214000000
C     3.480000000    -4.200000000    -3.809000000
C     2.987000000    -5.242000000    -3.101000000
H     2.880000000    -6.204000000    -3.595000000
C     2.898000000    -5.211000000    -1.727000000
O     2.430000000    -6.354000000    -1.058000000
C     2.374000000    -6.391000000     0.348000000
C     3.549000000    -6.478000000     1.149000000
H     4.551000000    -6.450000000     0.728000000
C     3.437000000    -6.351000000     2.530000000
H     4.355000000    -6.218000000     3.097000000
C     2.180000000    -6.269000000     3.152000000
H     2.068000000    -6.047000000     4.210000000
C     1.001000000    -6.245000000     2.354000000
C     1.114000000    -6.327000000     0.984000000
H     0.224000000    -6.358000000     0.362000000
C    -1.383000000    -3.122000000     0.491000000
H    -1.979000000    -3.745000000     1.154000000
C    -0.900000000    -1.895000000     0.927000000
H    -1.277000000    -1.533000000     1.880000000
C     0.058000000    -1.184000000     0.156000000
H     0.420000000    -0.195000000     0.496000000
C     0.403000000    -1.643000000    -1.086000000
H     1.093000000    -1.080000000    -1.710000000
C    -0.104000000    -2.896000000    -1.553000000
H     0.236000000    -3.117000000    -2.561000000
C    -1.005000000    -3.654000000    -0.813000000
C    -1.786000000    -4.789000000    -1.361000000
O    -1.683000000    -5.119000000    -2.565000000
O    -2.605000000    -5.405000000    -0.716000000
O    -0.837000000    -5.042000000    -7.956000000
H    -0.843000000    -4.135000000    -8.262000000
H    -1.070000000    -4.984000000    -7.030000000
O    -3.474000000    -2.938000000    -6.314000000
H    -2.844000000    -2.579000000    -6.939000000
H    -4.122000000    -3.387000000    -6.858000000
O    -1.329000000    -8.765000000    -5.063000000
H    -1.712000000    -8.185000000    -4.406000000
H    -1.882000000    -9.546000000    -5.046000000
O    -2.623000000    -7.782000000     0.620000000
H    -2.367000000    -6.981000000     0.163000000
H    -2.258000000    -8.489000000     0.088000000
O    -7.687000000    -6.421000000    -2.661000000
H    -7.567000000    -7.196000000    -2.112000000
H    -6.912000000    -5.885000000    -2.491000000
O    -1.407000000    -5.488000000    -5.182000000
H    -1.365000000    -5.263000000    -4.252000000
H    -2.338000000    -5.432000000    -5.399000000
O     0.846000000    -7.089000000    -4.598000000
H    -0.004000000    -6.649000000    -4.635000000
H     0.809000000    -7.740000000    -5.298000000
O    -4.209000000    -7.245000000    -2.598000000
H    -3.367000000    -6.891000000    -2.310000000
H    -4.856000000    -6.801000000    -2.050000000
O    -1.276000000    -8.619000000     2.944000000
H    -0.593000000    -8.241000000     3.499000000
H    -1.662000000    -7.867000000     2.495000000
O    -3.006000000    -2.955000000    -3.672000000
H    -2.776000000    -3.883000000    -3.623000000
H    -3.110000000    -2.784000000    -4.608000000
O    -4.733000000    -3.776000000     0.267000000
H    -4.505000000    -2.972000000    -0.199000000
H    -3.967000000    -4.340000000     0.161000000
O    -5.787000000    -4.559000000     2.625000000
H    -5.187000000    -5.207000000     2.995000000
H    -5.555000000    -4.520000000     1.698000000
O    -4.207000000    -5.654000000    -4.702000000
H    -5.060000000    -5.504000000    -5.110000000
H    -4.380000000    -6.300000000    -4.016000000
O    -5.520000000    -4.837000000    -2.231000000
H    -5.126000000    -4.196000000    -2.822000000
H    -5.241000000    -4.561000000    -1.358000000
O    -1.604000000    -9.887000000    -1.434000000
H    -1.477000000    -9.018000000    -1.814000000
H    -0.939000000    -9.947000000    -0.748000000
O    -3.850000000    -1.822000000    -1.431000000
H    -3.637000000    -2.271000000    -2.250000000
H    -3.114000000    -1.228000000    -1.285000000
O    -0.712000000    -7.541000000    -2.303000000
H    -1.030000000    -6.645000000    -2.191000000
H     0.045000000    -7.456000000    -2.882000000
O    -5.301000000    -8.231000000     0.652000000
H    -5.341000000    -8.981000000     1.246000000
H    -4.441000000    -7.843000000     0.814000000
O    -6.475000000    -0.970000000    -2.176000000
H    -5.801000000    -1.301000000    -1.583000000
H    -6.136000000    -1.154000000    -3.052000000
