215
-1465.30627
C    -4.634000000     2.002000000     1.032000000
H    -4.195000000     2.525000000     0.187000000
C    -3.874000000     1.798000000     2.252000000
C    -4.484000000     0.893000000     3.187000000
H    -3.914000000     0.658000000     4.082000000
C    -2.563000000     2.527000000     2.476000000
O    -2.659000000     3.902000000     2.032000000
H    -1.813000000     1.985000000     1.882000000
O    -2.224000000     2.604000000     3.845000000
C    -0.909000000     2.192000000     4.156000000
C    -0.733000000     0.832000000     4.411000000
H    -1.539000000     0.104000000     4.431000000
C     0.597000000     0.353000000     4.560000000
O     0.675000000    -1.067000000     4.731000000
C     1.652000000     1.223000000     4.438000000
C     3.069000000     0.703000000     4.556000000
H     3.683000000     1.540000000     4.895000000
C     3.564000000     0.098000000     3.248000000
C     4.163000000     0.966000000     2.372000000
H     4.240000000     2.028000000     2.593000000
H     3.203000000    -0.084000000     5.301000000
C     1.429000000     2.601000000     4.297000000
H     2.336000000     3.182000000     4.149000000
C     0.135000000     3.071000000     4.048000000
C    -0.059000000     4.533000000     3.522000000
H     0.861000000     5.078000000     3.745000000
H    -0.851000000     5.059000000     4.060000000
C    -0.294000000     4.613000000     2.010000000
C     0.753000000     4.954000000     1.142000000
H     1.749000000     5.029000000     1.572000000
C    -1.488000000     4.294000000     1.336000000
C    -1.607000000     4.194000000    -0.040000000
H    -2.527000000     3.898000000    -0.539000000
C    -0.523000000     4.581000000    -0.815000000
O    -0.567000000     4.495000000    -2.184000000
C    -0.064000000     3.298000000    -2.868000000
C    -0.990000000     2.636000000    -3.893000000
C    -0.457000000     1.714000000    -4.732000000
H     0.591000000     1.434000000    -4.666000000
C    -2.364000000     2.821000000    -3.837000000
H    -2.649000000     3.382000000    -2.950000000
O     1.320000000     3.546000000    -3.355000000
H     0.029000000     2.592000000    -2.029000000
C     0.721000000     4.987000000    -0.229000000
C     1.981000000     5.228000000    -0.994000000
H     2.733000000     5.917000000    -0.605000000
H     1.797000000     5.597000000    -2.005000000
C     2.725000000     3.905000000    -1.396000000
C     3.640000000     3.337000000    -0.534000000
H     3.842000000     3.810000000     0.423000000
C     2.400000000     3.224000000    -2.585000000
C     3.093000000     2.022000000    -2.875000000
H     2.867000000     1.378000000    -3.722000000
C     4.013000000     1.465000000    -2.023000000
O     4.497000000     0.220000000    -2.297000000
C     3.921000000    -0.854000000    -1.500000000
C     3.643000000    -2.114000000    -2.396000000
C     3.375000000    -1.972000000    -3.794000000
H     3.431000000    -0.967000000    -4.204000000
C     3.512000000    -3.391000000    -1.901000000
H     3.724000000    -3.527000000    -0.843000000
O     4.812000000    -1.328000000    -0.441000000
H     2.979000000    -0.507000000    -1.051000000
C     4.292000000     2.134000000    -0.817000000
C     5.254000000     1.608000000     0.272000000
H     5.618000000     2.513000000     0.763000000
H     6.162000000     1.215000000    -0.189000000
C     4.666000000     0.527000000     1.182000000
C     4.461000000    -0.816000000     0.798000000
C     3.729000000    -1.709000000     1.641000000
H     3.461000000    -2.701000000     1.285000000
C     3.352000000    -1.247000000     2.910000000
O     2.487000000    -2.093000000     3.639000000
C     1.060000000    -1.788000000     3.590000000
H     0.828000000    -1.223000000     2.675000000
C     0.288000000    -3.128000000     3.414000000
C    -1.103000000    -3.248000000     3.690000000
H    -1.661000000    -2.458000000     4.185000000
C     0.843000000    -4.209000000     2.724000000
H     1.889000000    -4.152000000     2.434000000
C     0.154000000    -5.408000000     2.559000000
O     0.812000000    -6.505000000     1.969000000
C    -1.130000000    -5.507000000     2.929000000
H    -1.665000000    -6.427000000     2.710000000
C    -1.793000000    -4.397000000     3.469000000
O    -3.129000000    -4.639000000     3.821000000
C    -3.910000000    -3.643000000     4.490000000
C    -4.429000000    -2.601000000     3.825000000
H    -4.230000000    -2.520000000     2.760000000
C    -4.177000000    -3.818000000     5.865000000
H    -3.876000000    -4.747000000     6.343000000
C    -4.977000000    -2.867000000     6.520000000
H    -5.145000000    -2.952000000     7.591000000
C    -5.519000000    -1.796000000     5.782000000
H    -6.254000000    -1.150000000     6.256000000
C    -5.321000000    -1.693000000     4.415000000
O    -6.151000000    -0.864000000     3.742000000
C    -5.652000000     0.180000000     2.889000000
C    -6.298000000     0.434000000     1.714000000
H    -7.206000000    -0.126000000     1.507000000
C    -5.840000000     1.384000000     0.813000000
O    -6.528000000     1.465000000    -0.396000000
C    -6.184000000     2.293000000    -1.456000000
C    -5.542000000     1.826000000    -2.580000000
H    -5.336000000     0.769000000    -2.733000000
C    -6.373000000     3.615000000    -1.308000000
H    -6.817000000     3.945000000    -0.372000000
C    -6.003000000     4.539000000    -2.359000000
H    -6.101000000     5.594000000    -2.113000000
C    -5.468000000     4.052000000    -3.512000000
H    -5.170000000     4.694000000    -4.337000000
C    -5.235000000     2.706000000    -3.655000000
O    -4.555000000     2.208000000    -4.716000000
C    -3.206000000     2.129000000    -4.730000000
C    -2.690000000     1.194000000    -5.618000000
H    -3.336000000     0.577000000    -6.237000000
C    -1.302000000     0.949000000    -5.558000000
O    -0.851000000    -0.179000000    -6.243000000
C     0.490000000    -0.378000000    -6.673000000
C     1.122000000    -1.480000000    -6.126000000
H     0.544000000    -2.166000000    -5.511000000
C     1.064000000     0.443000000    -7.667000000
H     0.576000000     1.321000000    -8.082000000
C     2.351000000     0.144000000    -8.007000000
H     2.827000000     0.861000000    -8.671000000
C     3.035000000    -0.914000000    -7.420000000
H     4.115000000    -0.988000000    -7.522000000
C     2.422000000    -1.791000000    -6.538000000
O     3.078000000    -2.836000000    -5.985000000
C     3.110000000    -3.025000000    -4.631000000
C     3.079000000    -4.309000000    -4.141000000
H     2.879000000    -5.152000000    -4.798000000
C     3.274000000    -4.495000000    -2.747000000
O     3.138000000    -5.735000000    -2.302000000
C     3.248000000    -6.081000000    -0.955000000
C     4.405000000    -6.621000000    -0.368000000
H     5.333000000    -6.714000000    -0.927000000
C     4.358000000    -7.020000000     0.963000000
H     5.275000000    -7.380000000     1.423000000
C     3.101000000    -7.113000000     1.684000000
H     3.123000000    -7.446000000     2.719000000
C     1.980000000    -6.476000000     1.158000000
C     2.016000000    -6.053000000    -0.191000000
H     1.074000000    -5.684000000    -0.588000000
C    -2.632000000    -2.710000000     0.046000000
H    -3.545000000    -3.085000000     0.501000000
C    -2.353000000    -1.357000000     0.120000000
H    -3.065000000    -0.641000000     0.525000000
C    -1.108000000    -0.885000000    -0.369000000
H    -1.037000000     0.189000000    -0.139000000
C    -0.171000000    -1.719000000    -0.971000000
H     0.743000000    -1.253000000    -1.330000000
C    -0.463000000    -3.083000000    -1.060000000
H     0.257000000    -3.746000000    -1.532000000
C    -1.674000000    -3.603000000    -0.558000000
C    -1.930000000    -5.111000000    -0.534000000
O    -1.352000000    -5.792000000    -1.315000000
O    -2.910000000    -5.539000000     0.088000000
O    -0.531000000    -4.778000000    -6.526000000
H     0.174000000    -5.000000000    -7.134000000
H    -0.241000000    -5.129000000    -5.684000000
O    -5.615000000    -3.240000000    -4.140000000
H    -5.981000000    -3.256000000    -3.256000000
H    -5.312000000    -2.340000000    -4.258000000
O    -5.728000000    -9.240000000     0.753000000
H    -5.765000000   -10.112000000     1.147000000
H    -5.100000000    -9.329000000     0.035000000
O    -0.511000000   -10.369000000    -3.990000000
H    -1.240000000   -10.492000000    -4.598000000
H    -0.806000000    -9.676000000    -3.399000000
O    -0.401000000    -5.028000000    -3.667000000
H    -0.764000000    -5.181000000    -2.795000000
H    -0.905000000    -4.291000000    -4.011000000
O    -3.589000000    -6.818000000    -2.597000000
H    -2.687000000    -6.625000000    -2.342000000
H    -3.702000000    -6.369000000    -3.435000000
O    -7.481000000    -4.803000000     1.676000000
H    -6.560000000    -5.003000000     1.510000000
H    -7.591000000    -3.904000000     1.368000000
O    -0.366000000   -10.718000000    -0.508000000
H     0.379000000   -10.672000000     0.092000000
H    -0.653000000    -9.810000000    -0.602000000
O    -0.776000000    -8.313000000    -1.630000000
H    -0.972000000    -7.384000000    -1.511000000
H     0.084000000    -8.324000000    -2.050000000
O    -3.248000000    -9.900000000     2.890000000
H    -2.908000000    -9.531000000     2.075000000
H    -3.830000000    -9.223000000     3.235000000
O    -4.769000000    -9.598000000    -2.110000000
H    -5.430000000    -9.349000000    -2.755000000
H    -4.107000000    -8.909000000    -2.167000000
O    -4.869000000    -5.346000000     1.848000000
H    -4.382000000    -5.424000000     1.028000000
H    -4.198000000    -5.190000000     2.512000000
O    -5.063000000    -4.862000000    -1.378000000
H    -4.861000000    -5.594000000    -1.961000000
H    -4.292000000    -4.783000000    -0.816000000
O    -2.643000000    -8.356000000     0.488000000
H    -2.027000000    -8.512000000    -0.228000000
H    -2.891000000    -7.436000000     0.394000000
O    -1.928000000    -2.486000000    -4.394000000
H    -2.566000000    -2.720000000    -5.068000000
H    -2.439000000    -2.021000000    -3.731000000
O    -4.171000000    -5.356000000    -4.964000000
H    -4.530000000    -5.204000000    -5.838000000
H    -4.676000000    -4.777000000    -4.394000000
O     1.408000000    -7.072000000    -4.830000000
H     1.710000000    -7.570000000    -4.071000000
H     0.701000000    -6.524000000    -4.490000000
O    -7.782000000    -5.642000000    -1.589000000
H    -6.871000000    -5.356000000    -1.515000000
H    -7.785000000    -6.529000000    -1.229000000
O    -3.936000000    -1.670000000    -2.593000000
H    -3.224000000    -1.677000000    -1.953000000
H    -4.654000000    -2.130000000    -2.157000000
