215
-1443.51378
C    -3.795000000     2.126000000     1.609000000
H    -3.434000000     2.914000000     0.953000000
C    -3.032000000     1.874000000     2.753000000
C    -3.505000000     0.926000000     3.645000000
H    -2.994000000     0.633000000     4.559000000
C    -1.591000000     2.405000000     2.848000000
O    -1.548000000     3.708000000     2.345000000
H    -0.933000000     1.766000000     2.241000000
O    -1.164000000     2.279000000     4.276000000
C     0.063000000     1.722000000     4.339000000
C     0.148000000     0.351000000     4.596000000
H    -0.736000000    -0.247000000     4.801000000
C     1.445000000    -0.251000000     4.566000000
O     1.463000000    -1.633000000     4.451000000
C     2.544000000     0.513000000     4.208000000
C     3.953000000    -0.118000000     4.010000000
H     4.638000000     0.729000000     4.086000000
C     4.088000000    -0.654000000     2.625000000
C     4.761000000     0.056000000     1.687000000
H     5.091000000     1.048000000     1.983000000
H     4.300000000    -0.829000000     4.762000000
C     2.425000000     1.868000000     4.002000000
H     3.269000000     2.487000000     3.709000000
C     1.208000000     2.470000000     3.990000000
C     1.152000000     3.968000000     3.628000000
H     2.035000000     4.571000000     3.849000000
H     0.428000000     4.422000000     4.308000000
C     0.834000000     4.191000000     2.191000000
C     1.923000000     4.494000000     1.347000000
H     2.951000000     4.582000000     1.688000000
C    -0.474000000     4.108000000     1.640000000
C    -0.651000000     4.382000000     0.308000000
H    -1.665000000     4.419000000    -0.083000000
C     0.339000000     4.647000000    -0.512000000
O    -0.039000000     4.633000000    -1.846000000
C     0.077000000     3.395000000    -2.488000000
C    -1.068000000     3.286000000    -3.523000000
C    -0.880000000     2.498000000    -4.650000000
H     0.045000000     1.940000000    -4.767000000
C    -2.390000000     3.689000000    -3.207000000
H    -2.599000000     3.955000000    -2.174000000
O     1.351000000     3.564000000    -3.181000000
H     0.041000000     2.482000000    -1.876000000
C     1.668000000     4.694000000    -0.008000000
C     2.811000000     4.812000000    -0.998000000
H     3.616000000     5.341000000    -0.484000000
H     2.671000000     5.490000000    -1.843000000
C     3.096000000     3.442000000    -1.542000000
C     4.146000000     2.744000000    -0.932000000
H     4.553000000     3.035000000     0.033000000
C     2.419000000     2.921000000    -2.627000000
C     2.699000000     1.694000000    -3.174000000
H     2.150000000     1.254000000    -4.003000000
C     3.654000000     0.901000000    -2.512000000
O     3.824000000    -0.403000000    -2.934000000
C     3.146000000    -1.398000000    -2.111000000
C     2.233000000    -2.343000000    -2.879000000
C     1.795000000    -1.951000000    -4.150000000
H     2.017000000    -0.946000000    -4.500000000
C     1.884000000    -3.663000000    -2.523000000
H     2.250000000    -3.990000000    -1.554000000
O     4.156000000    -2.122000000    -1.313000000
H     2.590000000    -0.816000000    -1.362000000
C     4.334000000     1.473000000    -1.389000000
C     5.406000000     0.543000000    -0.694000000
H     6.151000000     1.165000000    -0.192000000
H     6.016000000     0.011000000    -1.426000000
C     4.806000000    -0.360000000     0.324000000
C     4.300000000    -1.631000000     0.012000000
C     3.765000000    -2.450000000     1.031000000
H     3.484000000    -3.482000000     0.837000000
C     3.623000000    -1.919000000     2.299000000
O     2.944000000    -2.666000000     3.232000000
C     1.598000000    -2.329000000     3.234000000
H     1.302000000    -1.758000000     2.342000000
C     0.649000000    -3.489000000     3.247000000
C    -0.635000000    -3.414000000     3.815000000
H    -0.862000000    -2.533000000     4.410000000
C     0.937000000    -4.591000000     2.466000000
H     1.880000000    -4.661000000     1.931000000
C     0.074000000    -5.658000000     2.411000000
O     0.329000000    -6.801000000     1.721000000
C    -1.172000000    -5.559000000     2.992000000
H    -1.885000000    -6.379000000     2.951000000
C    -1.500000000    -4.468000000     3.735000000
O    -2.717000000    -4.480000000     4.352000000
C    -3.341000000    -3.451000000     5.093000000
C    -3.929000000    -2.370000000     4.432000000
H    -4.051000000    -2.408000000     3.352000000
C    -3.406000000    -3.486000000     6.459000000
H    -2.862000000    -4.234000000     7.030000000
C    -4.124000000    -2.538000000     7.160000000
H    -4.183000000    -2.705000000     8.232000000
C    -4.792000000    -1.576000000     6.486000000
H    -5.445000000    -0.877000000     7.001000000
C    -4.734000000    -1.497000000     5.090000000
O    -5.336000000    -0.534000000     4.314000000
C    -4.758000000     0.424000000     3.507000000
C    -5.500000000     0.654000000     2.349000000
H    -6.449000000     0.131000000     2.276000000
C    -5.060000000     1.556000000     1.411000000
O    -5.872000000     1.945000000     0.320000000
C    -5.757000000     3.051000000    -0.454000000
C    -5.221000000     2.930000000    -1.745000000
H    -4.769000000     2.023000000    -2.139000000
C    -6.281000000     4.241000000    -0.044000000
H    -6.673000000     4.374000000     0.961000000
C    -6.433000000     5.243000000    -0.969000000
H    -6.966000000     6.128000000    -0.632000000
C    -5.931000000     5.187000000    -2.270000000
H    -5.990000000     6.071000000    -2.901000000
C    -5.168000000     4.066000000    -2.602000000
O    -4.641000000     3.983000000    -3.878000000
C    -3.367000000     3.590000000    -4.139000000
C    -3.161000000     2.971000000    -5.391000000
H    -3.967000000     2.927000000    -6.119000000
C    -1.900000000     2.386000000    -5.660000000
O    -1.709000000     1.604000000    -6.798000000
C    -0.703000000     0.779000000    -7.002000000
C    -0.613000000    -0.468000000    -6.465000000
H    -1.395000000    -0.823000000    -5.798000000
C     0.397000000     1.322000000    -7.799000000
H     0.317000000     2.358000000    -8.121000000
C     1.522000000     0.547000000    -8.021000000
H     2.346000000     0.866000000    -8.654000000
C     1.586000000    -0.746000000    -7.488000000
H     2.405000000    -1.438000000    -7.662000000
C     0.522000000    -1.172000000    -6.646000000
O     0.514000000    -2.417000000    -6.125000000
C     0.926000000    -2.752000000    -4.850000000
C     0.674000000    -4.065000000    -4.555000000
H     0.210000000    -4.749000000    -5.260000000
C     1.144000000    -4.576000000    -3.348000000
O     1.057000000    -5.890000000    -2.936000000
C     1.563000000    -6.404000000    -1.763000000
C     2.852000000    -6.872000000    -1.638000000
H     3.513000000    -6.911000000    -2.500000000
C     3.331000000    -7.333000000    -0.432000000
H     4.311000000    -7.784000000    -0.302000000
C     2.489000000    -7.318000000     0.697000000
H     2.929000000    -7.641000000     1.637000000
C     1.155000000    -6.829000000     0.622000000
C     0.722000000    -6.306000000    -0.650000000
H    -0.263000000    -5.847000000    -0.654000000
C    -1.627000000    -2.278000000     0.817000000
H    -2.149000000    -2.898000000     1.542000000
C    -0.874000000    -1.179000000     1.168000000
H    -0.725000000    -1.073000000     2.239000000
C    -0.188000000    -0.549000000     0.161000000
H     0.358000000     0.299000000     0.438000000
C    -0.266000000    -0.901000000    -1.181000000
H     0.230000000    -0.318000000    -1.953000000
C    -1.199000000    -1.838000000    -1.581000000
H    -1.380000000    -2.131000000    -2.612000000
C    -1.943000000    -2.503000000    -0.543000000
C    -2.808000000    -3.686000000    -0.961000000
O    -3.187000000    -3.629000000    -2.128000000
O    -3.237000000    -4.581000000    -0.240000000
O    -7.192000000    -1.438000000    -1.171000000
H    -7.196000000    -2.337000000    -0.841000000
H    -6.270000000    -1.252000000    -1.347000000
O    -3.826000000    -1.508000000    -6.928000000
H    -3.782000000    -0.719000000    -6.389000000
H    -3.483000000    -2.203000000    -6.366000000
O    -2.769000000    -6.787000000    -5.597000000
H    -2.721000000    -6.325000000    -4.760000000
H    -2.134000000    -6.337000000    -6.155000000
O    -7.145000000    -5.900000000    -0.343000000
H    -7.658000000    -5.532000000    -1.062000000
H    -6.253000000    -5.948000000    -0.685000000
O    -0.568000000    -8.028000000    -4.240000000
H    -0.701000000    -7.158000000    -3.863000000
H    -1.349000000    -8.181000000    -4.772000000
O    -7.137000000    -2.735000000     2.826000000
H    -6.538000000    -3.391000000     2.467000000
H    -7.100000000    -2.870000000     3.773000000
O    -5.597000000    -4.895000000    -4.717000000
H    -5.264000000    -4.783000000    -5.607000000
H    -6.217000000    -4.175000000    -4.600000000
O    -4.775000000    -7.418000000     1.963000000
H    -5.287000000    -7.046000000     2.681000000
H    -5.291000000    -8.167000000     1.664000000
O    -3.301000000    -3.337000000    -4.783000000
H    -4.059000000    -3.919000000    -4.722000000
H    -2.822000000    -3.480000000    -3.967000000
O    -7.442000000    -3.178000000    -4.111000000
H    -7.601000000    -2.247000000    -4.262000000
H    -7.964000000    -3.389000000    -3.337000000
O    -4.982000000    -4.205000000     1.832000000
H    -4.700000000    -5.116000000     1.915000000
H    -4.650000000    -3.929000000     0.977000000
O    -8.505000000    -3.190000000     0.461000000
H    -7.915000000    -2.894000000     1.153000000
H    -9.168000000    -3.710000000     0.917000000
O    -2.191000000    -5.989000000    -2.961000000
H    -2.560000000    -6.658000000    -2.384000000
H    -2.329000000    -5.166000000    -2.492000000
O    -5.360000000    -8.902000000    -1.825000000
H    -5.627000000    -9.374000000    -1.036000000
H    -4.901000000    -8.129000000    -1.498000000
O    -2.403000000    -7.028000000     0.358000000
H    -3.105000000    -7.332000000     0.934000000
H    -2.498000000    -6.076000000     0.347000000
O    -3.564000000     0.242000000    -4.369000000
H    -3.195000000     0.958000000    -3.853000000
H    -4.504000000     0.422000000    -4.390000000
O    -4.794000000    -6.046000000    -1.748000000
H    -4.282000000    -5.345000000    -1.345000000
H    -4.670000000    -5.922000000    -2.689000000
O    -2.201000000    -9.685000000    -0.471000000
H    -1.448000000    -9.728000000    -1.061000000
H    -2.338000000    -8.749000000    -0.327000000
O    -4.637000000    -1.366000000    -2.531000000
H    -4.259000000    -2.216000000    -2.307000000
H    -4.471000000    -1.269000000    -3.469000000
