215
-1444.70640
C    -4.476000000     1.875000000     1.081000000
H    -4.018000000     2.577000000     0.389000000
C    -3.692000000     1.505000000     2.193000000
C    -4.076000000     0.295000000     2.799000000
H    -3.539000000    -0.130000000     3.643000000
C    -2.499000000     2.170000000     2.711000000
O    -2.485000000     3.617000000     2.444000000
H    -1.640000000     1.694000000     2.216000000
O    -2.267000000     1.879000000     4.135000000
C    -0.918000000     1.478000000     4.460000000
C    -0.710000000     0.076000000     4.558000000
H    -1.528000000    -0.639000000     4.570000000
C     0.622000000    -0.338000000     4.473000000
O     0.922000000    -1.669000000     4.591000000
C     1.668000000     0.628000000     4.405000000
C     3.169000000     0.142000000     4.430000000
H     3.844000000     0.868000000     4.887000000
C     3.800000000    -0.330000000     3.117000000
C     4.511000000     0.613000000     2.362000000
H     4.678000000     1.608000000     2.768000000
H     3.205000000    -0.721000000     5.099000000
C     1.360000000     1.980000000     4.303000000
H     2.088000000     2.785000000     4.233000000
C     0.055000000     2.409000000     4.367000000
C    -0.099000000     3.915000000     4.148000000
H     0.824000000     4.457000000     4.364000000
H    -1.047000000     4.319000000     4.510000000
C    -0.124000000     4.153000000     2.608000000
C     1.006000000     4.402000000     1.870000000
H     1.966000000     4.485000000     2.373000000
C    -1.317000000     4.132000000     1.943000000
C    -1.380000000     4.500000000     0.583000000
H    -2.282000000     4.607000000    -0.014000000
C    -0.217000000     4.776000000    -0.151000000
O    -0.293000000     4.861000000    -1.515000000
C    -0.021000000     3.659000000    -2.262000000
C    -0.880000000     3.603000000    -3.470000000
C    -0.472000000     3.145000000    -4.721000000
H     0.579000000     2.893000000    -4.838000000
C    -2.222000000     3.990000000    -3.246000000
H    -2.491000000     4.442000000    -2.294000000
O     1.359000000     3.544000000    -2.725000000
H    -0.317000000     2.791000000    -1.654000000
C     1.029000000     4.678000000     0.511000000
C     2.287000000     5.013000000    -0.166000000
H     3.020000000     5.508000000     0.473000000
H     2.189000000     5.801000000    -0.916000000
C     2.870000000     3.738000000    -0.806000000
C     3.937000000     3.095000000    -0.153000000
H     4.399000000     3.363000000     0.794000000
C     2.353000000     3.083000000    -1.964000000
C     2.908000000     1.984000000    -2.506000000
H     2.434000000     1.595000000    -3.403000000
C     4.065000000     1.457000000    -1.900000000
O     4.377000000     0.216000000    -2.373000000
C     3.753000000    -0.912000000    -1.690000000
C     3.085000000    -1.897000000    -2.582000000
C     2.343000000    -1.426000000    -3.649000000
H     2.225000000    -0.361000000    -3.833000000
C     3.213000000    -3.241000000    -2.315000000
H     3.857000000    -3.649000000    -1.540000000
O     4.713000000    -1.533000000    -0.765000000
H     2.952000000    -0.432000000    -1.109000000
C     4.513000000     1.934000000    -0.673000000
C     5.583000000     1.145000000     0.096000000
H     6.241000000     1.823000000     0.643000000
H     6.219000000     0.673000000    -0.656000000
C     4.844000000     0.192000000     1.056000000
C     4.582000000    -1.137000000     0.581000000
C     3.930000000    -2.051000000     1.446000000
H     3.843000000    -3.077000000     1.098000000
C     3.503000000    -1.575000000     2.655000000
O     2.826000000    -2.455000000     3.397000000
C     1.432000000    -2.319000000     3.389000000
H     1.169000000    -1.755000000     2.482000000
C     0.720000000    -3.735000000     3.274000000
C    -0.472000000    -3.964000000     3.852000000
H    -0.924000000    -3.192000000     4.469000000
C     1.298000000    -4.742000000     2.434000000
H     2.281000000    -4.615000000     1.988000000
C     0.648000000    -5.885000000     2.100000000
O     1.308000000    -6.957000000     1.527000000
C    -0.617000000    -6.096000000     2.719000000
H    -1.226000000    -6.973000000     2.509000000
C    -1.221000000    -5.088000000     3.537000000
O    -2.502000000    -5.357000000     3.927000000
C    -3.329000000    -4.272000000     4.390000000
C    -3.945000000    -3.512000000     3.402000000
H    -3.876000000    -3.827000000     2.364000000
C    -3.411000000    -3.921000000     5.721000000
H    -2.891000000    -4.456000000     6.511000000
C    -4.154000000    -2.748000000     6.086000000
H    -4.230000000    -2.557000000     7.153000000
C    -4.858000000    -2.054000000     5.069000000
H    -5.635000000    -1.348000000     5.351000000
C    -4.679000000    -2.421000000     3.714000000
O    -5.394000000    -1.768000000     2.744000000
C    -5.079000000    -0.507000000     2.209000000
C    -5.825000000    -0.065000000     1.154000000
H    -6.720000000    -0.611000000     0.871000000
C    -5.557000000     1.161000000     0.571000000
O    -6.168000000     1.387000000    -0.657000000
C    -6.164000000     2.629000000    -1.256000000
C    -5.260000000     2.737000000    -2.308000000
H    -4.511000000     1.996000000    -2.575000000
C    -6.984000000     3.628000000    -0.769000000
H    -7.509000000     3.533000000     0.179000000
C    -7.017000000     4.833000000    -1.437000000
H    -7.702000000     5.586000000    -1.055000000
C    -6.199000000     4.982000000    -2.651000000
H    -6.214000000     5.836000000    -3.322000000
C    -5.240000000     3.995000000    -3.005000000
O    -4.457000000     4.265000000    -4.128000000
C    -3.137000000     3.823000000    -4.271000000
C    -2.733000000     3.311000000    -5.518000000
H    -3.453000000     3.258000000    -6.331000000
C    -1.360000000     2.991000000    -5.765000000
O    -0.860000000     2.489000000    -6.955000000
C     0.035000000     1.385000000    -7.029000000
C    -0.121000000     0.321000000    -6.124000000
H    -0.959000000     0.245000000    -5.437000000
C     1.129000000     1.333000000    -7.902000000
H     1.263000000     2.222000000    -8.512000000
C     2.058000000     0.342000000    -7.810000000
H     2.989000000     0.511000000    -8.345000000
C     1.874000000    -0.782000000    -6.965000000
H     2.595000000    -1.591000000    -6.884000000
C     0.745000000    -0.816000000    -6.135000000
O     0.593000000    -1.808000000    -5.283000000
C     1.639000000    -2.320000000    -4.450000000
C     1.813000000    -3.655000000    -4.246000000
H     1.249000000    -4.387000000    -4.819000000
C     2.545000000    -4.144000000    -3.168000000
O     2.582000000    -5.494000000    -3.009000000
C     2.825000000    -6.186000000    -1.843000000
C     3.780000000    -7.125000000    -1.878000000
H     4.367000000    -7.272000000    -2.781000000
C     4.041000000    -7.933000000    -0.756000000
H     4.792000000    -8.719000000    -0.729000000
C     3.285000000    -7.744000000     0.446000000
H     3.436000000    -8.424000000     1.280000000
C     2.247000000    -6.809000000     0.485000000
C     2.032000000    -6.029000000    -0.638000000
H     1.123000000    -5.434000000    -0.659000000
C    -1.801000000    -1.765000000     0.419000000
H    -2.373000000    -2.279000000     1.187000000
C    -1.077000000    -0.682000000     0.832000000
H    -1.100000000    -0.458000000     1.896000000
C    -0.233000000    -0.001000000    -0.018000000
H     0.426000000     0.813000000     0.340000000
C    -0.290000000    -0.255000000    -1.400000000
H     0.271000000     0.355000000    -2.103000000
C    -1.063000000    -1.369000000    -1.803000000
H    -1.082000000    -1.642000000    -2.855000000
C    -1.763000000    -2.177000000    -0.966000000
C    -2.434000000    -3.457000000    -1.447000000
O    -2.323000000    -3.774000000    -2.614000000
O    -3.164000000    -4.107000000    -0.701000000
O    -7.724000000    -0.663000000    -2.287000000
H    -8.072000000    -1.468000000    -1.904000000
H    -6.775000000    -0.788000000    -2.287000000
O    -3.377000000    -1.664000000    -6.510000000
H    -3.613000000    -1.162000000    -5.730000000
H    -2.958000000    -2.454000000    -6.169000000
O    -2.790000000    -6.999000000    -4.887000000
H    -3.420000000    -6.728000000    -4.219000000
H    -2.673000000    -6.224000000    -5.436000000
O    -0.255000000    -7.829000000    -4.506000000
H    -0.375000000    -7.303000000    -3.716000000
H    -1.092000000    -7.766000000    -4.965000000
O    -8.323000000    -3.747000000    -1.332000000
H    -8.426000000    -4.229000000    -2.153000000
H    -7.507000000    -4.081000000    -0.958000000
O    -6.558000000    -4.986000000    -4.927000000
H    -7.243000000    -4.388000000    -4.628000000
H    -6.798000000    -5.191000000    -5.831000000
O    -3.249000000    -8.438000000     2.177000000
H    -3.380000000    -8.129000000     1.281000000
H    -3.600000000    -7.737000000     2.726000000
O    -1.846000000    -3.657000000    -5.057000000
H    -2.036000000    -3.634000000    -4.119000000
H    -1.275000000    -2.903000000    -5.204000000
O    -7.973000000    -2.722000000    -4.117000000
H    -8.896000000    -2.629000000    -3.881000000
H    -7.606000000    -1.845000000    -4.000000000
O    -5.686000000    -4.911000000    -0.248000000
H    -5.788000000    -4.795000000     0.697000000
H    -4.801000000    -4.594000000    -0.434000000
O    -2.032000000    -5.312000000    -7.192000000
H    -2.261000000    -4.566000000    -7.746000000
H    -1.732000000    -4.918000000    -6.372000000
O    -0.682000000    -5.972000000    -2.509000000
H    -1.261000000    -6.300000000    -1.820000000
H    -0.887000000    -5.038000000    -2.569000000
O    -5.014000000    -7.577000000    -1.703000000
H    -4.751000000    -6.750000000    -2.109000000
H    -5.670000000    -7.326000000    -1.053000000
O    -2.878000000    -6.774000000    -0.155000000
H    -3.707000000    -6.877000000    -0.624000000
H    -2.605000000    -5.877000000    -0.345000000
O    -3.979000000    -0.191000000    -4.326000000
H    -4.046000000    -0.714000000    -3.528000000
H    -4.857000000     0.170000000    -4.451000000
O    -4.217000000    -5.534000000    -3.171000000
H    -3.768000000    -4.893000000    -2.620000000
H    -4.885000000    -5.027000000    -3.632000000
O    -2.063000000    -9.619000000    -0.353000000
H    -1.168000000    -9.702000000    -0.682000000
H    -2.270000000    -8.690000000    -0.455000000
O    -6.292000000    -7.852000000     0.660000000
H    -7.241000000    -7.851000000     0.785000000
H    -5.945000000    -7.463000000     1.463000000
O    -4.781000000    -1.074000000    -1.639000000
H    -5.085000000    -0.259000000    -1.239000000
H    -4.221000000    -1.473000000    -0.973000000
