215
-1436.50199
C    -4.421000000     2.081000000     0.960000000
H    -4.070000000     3.017000000     0.534000000
C    -3.671000000     1.529000000     2.035000000
C    -4.128000000     0.403000000     2.727000000
H    -3.460000000    -0.135000000     3.396000000
C    -2.324000000     2.195000000     2.455000000
O    -2.176000000     3.675000000     2.277000000
H    -1.509000000     1.769000000     1.852000000
O    -1.982000000     1.911000000     3.843000000
C    -0.692000000     1.592000000     4.247000000
C    -0.509000000     0.259000000     4.527000000
H    -1.379000000    -0.391000000     4.474000000
C     0.779000000    -0.261000000     4.616000000
O     0.925000000    -1.599000000     4.606000000
C     1.901000000     0.613000000     4.551000000
C     3.294000000     0.077000000     4.452000000
H     3.936000000     0.903000000     4.766000000
C     3.783000000    -0.447000000     3.062000000
C     4.665000000     0.379000000     2.302000000
H     5.006000000     1.280000000     2.805000000
H     3.471000000    -0.722000000     5.175000000
C     1.683000000     1.991000000     4.384000000
H     2.534000000     2.662000000     4.293000000
C     0.379000000     2.528000000     4.179000000
C     0.171000000     4.006000000     3.859000000
H     0.917000000     4.567000000     4.425000000
H    -0.822000000     4.280000000     4.221000000
C     0.196000000     4.285000000     2.353000000
C     1.318000000     4.594000000     1.644000000
H     2.304000000     4.507000000     2.092000000
C    -1.026000000     4.078000000     1.623000000
C    -1.081000000     4.311000000     0.273000000
H    -2.052000000     4.267000000    -0.215000000
C     0.049000000     4.685000000    -0.426000000
O     0.101000000     4.714000000    -1.809000000
C     0.178000000     3.514000000    -2.496000000
C    -0.839000000     3.310000000    -3.667000000
C    -0.555000000     2.538000000    -4.749000000
H     0.466000000     2.190000000    -4.874000000
C    -2.128000000     3.837000000    -3.531000000
H    -2.281000000     4.360000000    -2.590000000
O     1.501000000     3.435000000    -3.033000000
H    -0.002000000     2.751000000    -1.723000000
C     1.262000000     4.817000000     0.253000000
C     2.498000000     4.932000000    -0.521000000
H     3.224000000     5.565000000    -0.007000000
H     2.328000000     5.587000000    -1.378000000
C     2.968000000     3.573000000    -1.086000000
C     3.999000000     2.955000000    -0.494000000
H     4.399000000     3.355000000     0.434000000
C     2.490000000     2.941000000    -2.248000000
C     3.037000000     1.750000000    -2.797000000
H     2.639000000     1.294000000    -3.700000000
C     4.191000000     1.226000000    -2.239000000
O     4.449000000    -0.041000000    -2.687000000
C     3.869000000    -1.089000000    -1.868000000
C     3.261000000    -2.236000000    -2.655000000
C     2.527000000    -1.929000000    -3.771000000
H     2.362000000    -0.878000000    -3.998000000
C     3.487000000    -3.613000000    -2.350000000
H     4.047000000    -3.804000000    -1.438000000
O     4.823000000    -1.497000000    -0.866000000
H     3.011000000    -0.729000000    -1.282000000
C     4.587000000     1.804000000    -1.005000000
C     5.609000000     1.081000000    -0.062000000
H     6.222000000     1.804000000     0.479000000
H     6.331000000     0.559000000    -0.694000000
C     4.979000000     0.058000000     0.946000000
C     4.629000000    -1.163000000     0.457000000
C     3.876000000    -2.077000000     1.230000000
H     3.595000000    -3.019000000     0.766000000
C     3.389000000    -1.649000000     2.466000000
O     2.612000000    -2.567000000     3.132000000
C     1.194000000    -2.255000000     3.262000000
H     0.883000000    -1.583000000     2.449000000
C     0.333000000    -3.552000000     3.259000000
C    -0.852000000    -3.649000000     4.040000000
H    -1.043000000    -2.851000000     4.754000000
C     0.631000000    -4.553000000     2.328000000
H     1.533000000    -4.449000000     1.730000000
C    -0.240000000    -5.629000000     2.128000000
O     0.116000000    -6.723000000     1.348000000
C    -1.418000000    -5.703000000     2.897000000
H    -2.030000000    -6.599000000     2.831000000
C    -1.759000000    -4.697000000     3.793000000
O    -2.895000000    -4.854000000     4.644000000
C    -3.786000000    -3.804000000     4.816000000
C    -4.315000000    -3.240000000     3.725000000
H    -3.966000000    -3.656000000     2.784000000
C    -4.203000000    -3.382000000     6.135000000
H    -3.856000000    -3.962000000     6.987000000
C    -5.163000000    -2.352000000     6.215000000
H    -5.457000000    -2.105000000     7.232000000
C    -5.564000000    -1.680000000     5.046000000
H    -6.263000000    -0.850000000     5.099000000
C    -5.133000000    -2.147000000     3.864000000
O    -5.607000000    -1.538000000     2.712000000
C    -5.295000000    -0.291000000     2.278000000
C    -6.011000000     0.171000000     1.128000000
H    -6.734000000    -0.479000000     0.643000000
C    -5.650000000     1.450000000     0.568000000
O    -6.336000000     1.933000000    -0.437000000
C    -5.945000000     3.066000000    -1.167000000
C    -5.412000000     2.969000000    -2.442000000
H    -5.185000000     2.009000000    -2.898000000
C    -6.190000000     4.285000000    -0.616000000
H    -6.736000000     4.380000000     0.319000000
C    -5.920000000     5.451000000    -1.373000000
H    -6.055000000     6.411000000    -0.882000000
C    -5.305000000     5.381000000    -2.608000000
H    -4.988000000     6.225000000    -3.215000000
C    -5.133000000     4.122000000    -3.192000000
O    -4.446000000     4.081000000    -4.381000000
C    -3.161000000     3.564000000    -4.515000000
C    -2.753000000     2.912000000    -5.682000000
H    -3.467000000     2.607000000    -6.444000000
C    -1.456000000     2.325000000    -5.740000000
O    -0.993000000     1.612000000    -6.886000000
C     0.081000000     0.771000000    -6.920000000
C     0.059000000    -0.448000000    -6.216000000
H    -0.844000000    -0.598000000    -5.630000000
C     1.274000000     1.092000000    -7.537000000
H     1.296000000     2.046000000    -8.057000000
C     2.383000000     0.266000000    -7.510000000
H     3.286000000     0.605000000    -8.010000000
C     2.294000000    -1.010000000    -6.897000000
H     3.116000000    -1.720000000    -6.873000000
C     1.136000000    -1.301000000    -6.219000000
O     1.061000000    -2.557000000    -5.544000000
C     1.904000000    -2.943000000    -4.522000000
C     1.889000000    -4.194000000    -4.011000000
H     1.333000000    -4.948000000    -4.563000000
C     2.618000000    -4.512000000    -2.946000000
O     2.653000000    -5.844000000    -2.612000000
C     2.591000000    -6.266000000    -1.317000000
C     3.702000000    -6.916000000    -0.760000000
H     4.585000000    -7.044000000    -1.381000000
C     3.707000000    -7.392000000     0.541000000
H     4.575000000    -7.914000000     0.935000000
C     2.500000000    -7.348000000     1.287000000
H     2.477000000    -7.677000000     2.322000000
C     1.330000000    -6.825000000     0.688000000
C     1.393000000    -6.285000000    -0.624000000
H     0.441000000    -6.000000000    -1.064000000
C    -2.417000000    -1.359000000    -0.206000000
H    -3.213000000    -1.896000000     0.303000000
C    -1.464000000    -0.553000000     0.344000000
H    -1.598000000    -0.266000000     1.384000000
C    -0.350000000    -0.056000000    -0.295000000
H     0.442000000     0.497000000     0.215000000
C    -0.172000000    -0.423000000    -1.659000000
H     0.657000000    -0.091000000    -2.280000000
C    -1.226000000    -1.088000000    -2.241000000
H    -1.195000000    -1.236000000    -3.317000000
C    -2.413000000    -1.580000000    -1.550000000
C    -3.483000000    -2.299000000    -2.329000000
O    -3.440000000    -2.294000000    -3.548000000
O    -4.363000000    -2.846000000    -1.770000000
O    -8.224000000     1.351000000    -2.766000000
H    -7.854000000     1.406000000    -3.647000000
H    -7.549000000     1.725000000    -2.200000000
O    -2.187000000    -6.439000000    -5.579000000
H    -2.940000000    -6.479000000    -6.169000000
H    -2.233000000    -5.564000000    -5.192000000
O    -0.327000000    -7.740000000    -3.806000000
H    -0.938000000    -7.212000000    -4.320000000
H    -0.628000000    -7.644000000    -2.903000000
O    -6.128000000    -0.941000000    -3.891000000
H    -5.523000000    -1.380000000    -4.490000000
H    -5.762000000    -1.102000000    -3.022000000
O    -8.586000000    -4.650000000    -2.560000000
H    -8.358000000    -3.912000000    -3.127000000
H    -8.065000000    -5.379000000    -2.896000000
O    -8.117000000    -2.603000000     2.488000000
H    -7.779000000    -3.000000000     1.685000000
H    -7.521000000    -1.874000000     2.663000000
O    -6.491000000    -7.344000000    -1.028000000
H    -5.658000000    -6.874000000    -1.070000000
H    -7.073000000    -6.758000000    -0.544000000
O    -2.873000000    -3.584000000    -8.103000000
H    -3.153000000    -4.482000000    -8.281000000
H    -1.925000000    -3.648000000    -7.984000000
O    -8.445000000    -2.246000000    -3.604000000
H    -7.629000000    -1.789000000    -3.809000000
H    -8.828000000    -1.742000000    -2.886000000
O    -6.878000000    -3.075000000    -0.341000000
H    -5.994000000    -2.879000000    -0.652000000
H    -7.017000000    -3.992000000    -0.576000000
O    -0.287000000    -4.164000000    -7.594000000
H    -0.293000000    -5.116000000    -7.696000000
H     0.347000000    -4.002000000    -6.896000000
O    -5.814000000    -4.981000000    -6.982000000
H    -6.768000000    -4.906000000    -7.023000000
H    -5.605000000    -4.862000000    -6.056000000
O    -1.679000000    -3.994000000    -4.628000000
H    -0.879000000    -3.468000000    -4.644000000
H    -2.295000000    -3.476000000    -4.109000000
O    -4.868000000    -7.833000000    -3.696000000
H    -4.924000000    -7.159000000    -4.374000000
H    -5.747000000    -7.867000000    -3.319000000
O    -4.450000000    -5.574000000    -1.143000000
H    -3.795000000    -5.362000000    -0.477000000
H    -4.650000000    -4.735000000    -1.558000000
O    -6.361000000    -0.032000000    -7.062000000
H    -5.823000000    -0.725000000    -6.679000000
H    -6.292000000     0.694000000    -6.443000000
O    -4.948000000    -4.817000000    -4.131000000
H    -4.065000000    -4.503000000    -3.933000000
H    -5.523000000    -4.263000000    -3.602000000
O    -2.154000000    -7.131000000    -1.567000000
H    -2.549000000    -8.002000000    -1.601000000
H    -2.875000000    -6.534000000    -1.766000000
O    -4.497000000    -2.307000000    -6.125000000
H    -4.016000000    -2.477000000    -5.315000000
H    -3.963000000    -2.707000000    -6.810000000
