215
-1454.22794
C    -5.057000000     1.161000000     0.183000000
H    -4.466000000     1.545000000    -0.644000000
C    -4.507000000     1.179000000     1.507000000
C    -5.046000000     0.292000000     2.470000000
H    -4.719000000     0.349000000     3.505000000
C    -3.220000000     2.044000000     1.830000000
O    -3.366000000     3.443000000     1.419000000
H    -2.289000000     1.660000000     1.387000000
O    -3.063000000     1.995000000     3.291000000
C    -1.812000000     1.709000000     3.727000000
C    -1.475000000     0.425000000     4.033000000
H    -2.252000000    -0.336000000     4.046000000
C    -0.206000000     0.230000000     4.515000000
O     0.153000000    -1.041000000     4.753000000
C     0.746000000     1.260000000     4.650000000
C     2.218000000     0.995000000     5.032000000
H     2.767000000     1.781000000     5.554000000
C     3.090000000     0.447000000     3.979000000
C     3.830000000     1.382000000     3.242000000
H     3.747000000     2.421000000     3.550000000
H     2.260000000     0.168000000     5.744000000
C     0.339000000     2.637000000     4.371000000
H     1.103000000     3.406000000     4.294000000
C    -0.910000000     2.758000000     3.875000000
C    -1.230000000     4.141000000     3.376000000
H    -0.614000000     4.830000000     3.957000000
H    -2.261000000     4.352000000     3.669000000
C    -1.128000000     4.338000000     1.921000000
C     0.104000000     4.759000000     1.394000000
H     0.950000000     4.885000000     2.065000000
C    -2.176000000     4.000000000     1.025000000
C    -1.965000000     4.187000000    -0.350000000
H    -2.787000000     3.861000000    -0.983000000
C    -0.707000000     4.591000000    -0.821000000
O    -0.574000000     4.379000000    -2.139000000
C     0.214000000     3.249000000    -2.568000000
C    -0.349000000     2.459000000    -3.769000000
C     0.493000000     1.991000000    -4.790000000
H     1.537000000     2.295000000    -4.784000000
C    -1.739000000     2.099000000    -3.703000000
H    -2.347000000     2.356000000    -2.840000000
O     1.617000000     3.751000000    -2.856000000
H     0.335000000     2.605000000    -1.684000000
C     0.355000000     4.967000000     0.034000000
C     1.636000000     5.355000000    -0.544000000
H     2.146000000     6.109000000     0.060000000
H     1.622000000     5.739000000    -1.566000000
C     2.565000000     4.189000000    -0.692000000
C     3.385000000     3.704000000     0.371000000
H     3.372000000     4.154000000     1.360000000
C     2.602000000     3.463000000    -1.883000000
C     3.404000000     2.375000000    -2.151000000
H     3.130000000     1.787000000    -3.023000000
C     4.279000000     2.017000000    -1.090000000
O     4.955000000     0.832000000    -1.252000000
C     4.295000000    -0.301000000    -0.702000000
C     3.925000000    -1.360000000    -1.732000000
C     3.956000000    -1.140000000    -3.115000000
H     4.129000000    -0.140000000    -3.505000000
C     3.353000000    -2.531000000    -1.284000000
H     3.063000000    -2.667000000    -0.246000000
O     4.934000000    -0.767000000     0.526000000
H     3.323000000     0.025000000    -0.305000000
C     4.224000000     2.612000000     0.148000000
C     5.157000000     2.084000000     1.164000000
H     5.491000000     2.864000000     1.850000000
H     6.042000000     1.636000000     0.708000000
C     4.578000000     1.018000000     2.074000000
C     4.502000000    -0.366000000     1.742000000
C     3.838000000    -1.277000000     2.522000000
H     3.756000000    -2.263000000     2.072000000
C     3.128000000    -0.938000000     3.676000000
O     2.248000000    -1.879000000     4.228000000
C     0.879000000    -1.793000000     3.783000000
H     1.119000000    -1.371000000     2.796000000
C     0.327000000    -3.179000000     3.561000000
C    -1.106000000    -3.386000000     3.556000000
H    -1.701000000    -2.510000000     3.799000000
C     1.116000000    -4.287000000     3.238000000
H     2.195000000    -4.153000000     3.230000000
C     0.529000000    -5.526000000     2.871000000
O     1.272000000    -6.594000000     2.423000000
C    -0.868000000    -5.621000000     2.863000000
H    -1.340000000    -6.526000000     2.488000000
C    -1.728000000    -4.603000000     3.218000000
O    -3.077000000    -4.661000000     3.021000000
C    -3.903000000    -3.754000000     3.713000000
C    -4.735000000    -2.925000000     2.981000000
H    -4.647000000    -2.893000000     1.898000000
C    -3.994000000    -3.890000000     5.081000000
H    -3.390000000    -4.634000000     5.594000000
C    -4.967000000    -3.225000000     5.768000000
H    -5.154000000    -3.370000000     6.829000000
C    -5.855000000    -2.412000000     5.104000000
H    -6.625000000    -1.884000000     5.661000000
C    -5.766000000    -2.274000000     3.747000000
O    -6.658000000    -1.453000000     2.999000000
C    -6.093000000    -0.608000000     2.086000000
C    -6.591000000    -0.605000000     0.793000000
H    -7.460000000    -1.214000000     0.558000000
C    -6.127000000     0.299000000    -0.118000000
O    -6.654000000     0.299000000    -1.463000000
C    -6.305000000     1.244000000    -2.438000000
C    -5.252000000     0.926000000    -3.359000000
H    -4.883000000    -0.093000000    -3.429000000
C    -6.794000000     2.557000000    -2.516000000
H    -7.651000000     2.842000000    -1.912000000
C    -6.425000000     3.425000000    -3.540000000
H    -6.884000000     4.406000000    -3.627000000
C    -5.284000000     3.142000000    -4.340000000
H    -4.872000000     3.892000000    -5.010000000
C    -4.648000000     1.877000000    -4.159000000
O    -3.635000000     1.446000000    -5.005000000
C    -2.291000000     1.547000000    -4.826000000
C    -1.472000000     1.201000000    -5.893000000
H    -1.916000000     0.705000000    -6.752000000
C    -0.075000000     1.309000000    -5.840000000
O     0.621000000     0.940000000    -6.967000000
C     1.897000000     0.428000000    -6.962000000
C     2.305000000    -0.542000000    -6.083000000
H     1.672000000    -0.901000000    -5.276000000
C     2.638000000     0.665000000    -8.100000000
H     2.252000000     1.276000000    -8.911000000
C     3.932000000     0.137000000    -8.220000000
H     4.604000000     0.328000000    -9.052000000
C     4.418000000    -0.710000000    -7.245000000
H     5.393000000    -1.170000000    -7.387000000
C     3.584000000    -1.128000000    -6.215000000
O     3.888000000    -2.147000000    -5.329000000
C     3.583000000    -2.134000000    -3.970000000
C     3.228000000    -3.377000000    -3.489000000
H     2.916000000    -4.136000000    -4.201000000
C     3.064000000    -3.579000000    -2.133000000
O     2.517000000    -4.738000000    -1.729000000
C     2.885000000    -5.390000000    -0.589000000
C     4.153000000    -5.828000000    -0.413000000
H     4.951000000    -5.598000000    -1.115000000
C     4.478000000    -6.455000000     0.771000000
H     5.519000000    -6.699000000     0.964000000
C     3.478000000    -6.718000000     1.711000000
H     3.786000000    -7.310000000     2.569000000
C     2.180000000    -6.308000000     1.533000000
C     1.900000000    -5.649000000     0.371000000
H     0.898000000    -5.274000000     0.179000000
C    -0.837000000    -2.232000000     0.301000000
H    -1.377000000    -2.964000000     0.897000000
C    -0.502000000    -0.963000000     0.848000000
H    -0.874000000    -0.673000000     1.828000000
C     0.222000000    -0.091000000     0.053000000
H     0.436000000     0.934000000     0.354000000
C     0.531000000    -0.365000000    -1.271000000
H     1.018000000     0.411000000    -1.856000000
C     0.181000000    -1.596000000    -1.819000000
H     0.283000000    -1.741000000    -2.892000000
C    -0.524000000    -2.564000000    -1.034000000
C    -1.153000000    -3.760000000    -1.700000000
O    -0.841000000    -4.050000000    -2.855000000
O    -2.024000000    -4.388000000    -1.113000000
O    -3.661000000    -8.417000000    -5.845000000
H    -3.883000000    -7.517000000    -6.085000000
H    -3.209000000    -8.337000000    -5.006000000
O    -7.201000000    -5.120000000     1.246000000
H    -6.702000000    -5.096000000     0.429000000
H    -6.563000000    -5.390000000     1.907000000
O    -0.958000000    -8.516000000    -4.595000000
H    -0.503000000    -7.688000000    -4.440000000
H    -0.885000000    -8.989000000    -3.766000000
O    -3.379000000    -1.269000000    -2.032000000
H    -2.625000000    -1.265000000    -1.442000000
H    -4.062000000    -1.729000000    -1.544000000
O    -0.157000000    -8.447000000    -0.876000000
H     0.116000000    -7.768000000    -1.493000000
H     0.282000000    -9.240000000    -1.182000000
O     3.654000000    -7.658000000    -3.135000000
H     3.903000000    -8.511000000    -2.780000000
H     3.629000000    -7.079000000    -2.373000000
O    -3.860000000    -1.110000000    -6.510000000
H    -3.367000000    -1.651000000    -5.893000000
H    -4.752000000    -1.102000000    -6.162000000
O    -3.367000000    -2.647000000    -4.230000000
H    -3.400000000    -1.958000000    -3.567000000
H    -3.172000000    -3.444000000    -3.738000000
O    -3.136000000    -5.853000000    -3.467000000
H    -3.347000000    -6.703000000    -3.082000000
H    -2.567000000    -5.432000000    -2.823000000
O    -4.458000000    -3.265000000    -0.755000000
H    -3.648000000    -3.719000000    -0.987000000
H    -5.152000000    -3.886000000    -0.976000000
O    -4.485000000    -8.816000000    -2.944000000
H    -4.146000000    -9.664000000    -3.234000000
H    -5.257000000    -9.033000000    -2.423000000
O    -4.334000000    -5.575000000    -5.938000000
H    -5.115000000    -5.023000000    -5.899000000
H    -3.977000000    -5.548000000    -5.051000000
O    -1.924000000    -8.641000000     1.175000000
H    -2.283000000    -7.910000000     0.672000000
H    -1.159000000    -8.924000000     0.673000000
O    -5.512000000    -5.786000000    -1.197000000
H    -4.899000000    -6.347000000    -0.722000000
H    -5.560000000    -6.171000000    -2.072000000
O     1.502000000    -4.859000000    -6.444000000
H     1.526000000    -4.423000000    -7.296000000
H     0.627000000    -4.671000000    -6.104000000
O    -2.223000000    -5.002000000    -7.696000000
H    -1.774000000    -4.426000000    -7.078000000
H    -2.922000000    -5.407000000    -7.183000000
O     0.494000000    -6.478000000    -3.337000000
H     0.054000000    -5.672000000    -3.067000000
H     1.394000000    -6.375000000    -3.029000000
O    -2.976000000    -6.380000000     0.244000000
H    -3.271000000    -6.000000000     1.071000000
H    -2.518000000    -5.666000000    -0.199000000
O    -1.137000000    -3.742000000    -5.615000000
H    -2.040000000    -3.527000000    -5.380000000
H    -0.682000000    -3.816000000    -4.776000000
