215
-1456.78611
C    -5.005000000     1.265000000     0.373000000
H    -4.704000000     2.044000000    -0.323000000
C    -4.396000000     1.311000000     1.669000000
C    -4.729000000     0.329000000     2.596000000
H    -4.217000000     0.409000000     3.551000000
C    -3.166000000     2.292000000     1.937000000
O    -3.377000000     3.595000000     1.373000000
H    -2.341000000     1.782000000     1.419000000
O    -2.804000000     2.295000000     3.318000000
C    -1.496000000     2.284000000     3.745000000
C    -1.012000000     1.085000000     4.179000000
H    -1.676000000     0.225000000     4.157000000
C     0.339000000     0.959000000     4.580000000
O     0.672000000    -0.322000000     4.919000000
C     1.251000000     2.041000000     4.332000000
C     2.741000000     1.892000000     4.652000000
H     3.189000000     2.885000000     4.718000000
C     3.518000000     1.190000000     3.552000000
C     4.106000000     1.915000000     2.511000000
H     4.213000000     2.991000000     2.627000000
H     2.994000000     1.366000000     5.575000000
C     0.715000000     3.198000000     3.820000000
H     1.366000000     4.042000000     3.607000000
C    -0.647000000     3.367000000     3.568000000
C    -1.166000000     4.664000000     2.946000000
H    -0.635000000     5.555000000     3.288000000
H    -2.230000000     4.849000000     3.112000000
C    -1.135000000     4.637000000     1.437000000
C     0.061000000     4.963000000     0.779000000
H     0.944000000     5.160000000     1.382000000
C    -2.277000000     4.161000000     0.749000000
C    -2.205000000     3.934000000    -0.613000000
H    -2.942000000     3.379000000    -1.187000000
C    -0.999000000     4.243000000    -1.287000000
O    -0.887000000     4.008000000    -2.655000000
C    -0.347000000     2.816000000    -3.082000000
C    -1.184000000     2.169000000    -4.147000000
C    -0.631000000     1.298000000    -5.039000000
H     0.444000000     1.140000000    -5.034000000
C    -2.540000000     2.420000000    -4.275000000
H    -3.056000000     3.075000000    -3.579000000
O     0.968000000     3.063000000    -3.501000000
H    -0.251000000     2.218000000    -2.164000000
C     0.137000000     4.705000000    -0.602000000
C     1.401000000     5.116000000    -1.330000000
H     1.880000000     5.977000000    -0.860000000
H     1.092000000     5.641000000    -2.236000000
C     2.287000000     3.829000000    -1.564000000
C     3.356000000     3.576000000    -0.684000000
H     3.583000000     4.356000000     0.039000000
C     2.018000000     2.887000000    -2.580000000
C     2.846000000     1.822000000    -2.735000000
H     2.638000000     1.141000000    -3.556000000
C     3.880000000     1.558000000    -1.784000000
O     4.543000000     0.368000000    -1.841000000
C     4.038000000    -0.694000000    -0.998000000
C     3.823000000    -1.994000000    -1.751000000
C     3.617000000    -2.007000000    -3.176000000
H     3.711000000    -1.085000000    -3.743000000
C     3.771000000    -3.210000000    -1.085000000
H     3.946000000    -3.179000000    -0.013000000
O     4.900000000    -0.835000000     0.175000000
H     3.093000000    -0.395000000    -0.520000000
C     4.145000000     2.460000000    -0.747000000
C     5.217000000     2.156000000     0.285000000
H     5.644000000     3.094000000     0.647000000
H     6.063000000     1.662000000    -0.198000000
C     4.644000000     1.302000000     1.389000000
C     4.520000000    -0.056000000     1.252000000
C     4.031000000    -0.849000000     2.321000000
H     3.937000000    -1.917000000     2.145000000
C     3.556000000    -0.231000000     3.441000000
O     2.853000000    -1.093000000     4.194000000
C     1.373000000    -1.153000000     3.957000000
H     1.205000000    -0.673000000     2.982000000
C     0.907000000    -2.578000000     3.884000000
C    -0.438000000    -2.843000000     3.680000000
H    -1.147000000    -2.026000000     3.578000000
C     1.851000000    -3.596000000     3.779000000
H     2.922000000    -3.421000000     3.835000000
C     1.399000000    -4.915000000     3.553000000
O     2.372000000    -5.888000000     3.441000000
C     0.064000000    -5.135000000     3.444000000
H    -0.306000000    -6.156000000     3.398000000
C    -0.897000000    -4.119000000     3.470000000
O    -2.200000000    -4.349000000     3.285000000
C    -3.274000000    -3.759000000     3.952000000
C    -4.240000000    -3.123000000     3.226000000
H    -4.224000000    -3.035000000     2.143000000
C    -3.360000000    -3.789000000     5.331000000
H    -2.643000000    -4.431000000     5.839000000
C    -4.420000000    -3.209000000     5.994000000
H    -4.578000000    -3.229000000     7.069000000
C    -5.328000000    -2.419000000     5.285000000
H    -6.105000000    -1.856000000     5.797000000
C    -5.183000000    -2.356000000     3.927000000
O    -6.105000000    -1.586000000     3.215000000
C    -5.710000000    -0.544000000     2.282000000
C    -6.347000000    -0.544000000     1.045000000
H    -7.164000000    -1.256000000     0.955000000
C    -6.046000000     0.367000000     0.059000000
O    -6.745000000     0.448000000    -1.135000000
C    -6.426000000     1.453000000    -2.061000000
C    -5.639000000     1.198000000    -3.206000000
H    -5.101000000     0.257000000    -3.291000000
C    -7.094000000     2.688000000    -1.986000000
H    -7.702000000     3.014000000    -1.147000000
C    -6.969000000     3.640000000    -2.961000000
H    -7.377000000     4.636000000    -2.810000000
C    -6.151000000     3.428000000    -4.043000000
H    -6.125000000     4.095000000    -4.902000000
C    -5.533000000     2.200000000    -4.203000000
O    -4.691000000     2.012000000    -5.306000000
C    -3.324000000     1.680000000    -5.174000000
C    -2.787000000     0.730000000    -6.007000000
H    -3.419000000     0.133000000    -6.659000000
C    -1.412000000     0.494000000    -5.904000000
O    -0.708000000    -0.352000000    -6.774000000
C     0.668000000    -0.660000000    -6.734000000
C     1.058000000    -1.765000000    -6.015000000
H     0.249000000    -2.387000000    -5.641000000
C     1.630000000     0.200000000    -7.321000000
H     1.368000000     1.101000000    -7.871000000
C     2.967000000    -0.215000000    -7.246000000
H     3.676000000     0.404000000    -7.790000000
C     3.394000000    -1.350000000    -6.514000000
H     4.446000000    -1.611000000    -6.594000000
C     2.454000000    -2.122000000    -5.840000000
O     2.800000000    -3.249000000    -5.096000000
C     3.215000000    -3.174000000    -3.829000000
C     3.116000000    -4.344000000    -3.061000000
H     2.739000000    -5.243000000    -3.543000000
C     3.425000000    -4.367000000    -1.763000000
O     3.417000000    -5.622000000    -1.213000000
C     3.793000000    -5.831000000     0.062000000
C     5.081000000    -6.253000000     0.278000000
H     5.829000000    -6.310000000    -0.509000000
C     5.381000000    -6.579000000     1.549000000
H     6.383000000    -6.943000000     1.760000000
C     4.494000000    -6.440000000     2.607000000
H     4.812000000    -6.702000000     3.613000000
C     3.244000000    -5.942000000     2.381000000
C     2.797000000    -5.710000000     1.081000000
H     1.774000000    -5.387000000     0.908000000
C    -1.572000000    -2.011000000     0.324000000
H    -2.181000000    -2.668000000     0.939000000
C    -0.818000000    -0.987000000     0.844000000
H    -0.791000000    -0.813000000     1.917000000
C    -0.068000000    -0.171000000    -0.039000000
H     0.449000000     0.731000000     0.372000000
C    -0.009000000    -0.461000000    -1.372000000
H     0.589000000     0.125000000    -2.065000000
C    -0.640000000    -1.567000000    -1.907000000
H    -0.571000000    -1.942000000    -2.925000000
C    -1.507000000    -2.353000000    -1.056000000
C    -2.259000000    -3.524000000    -1.572000000
O    -2.049000000    -3.762000000    -2.689000000
O    -2.889000000    -4.307000000    -0.863000000
O    -4.971000000    -8.048000000     0.067000000
H    -4.157000000    -7.566000000    -0.075000000
H    -5.384000000    -7.608000000     0.810000000
O    -8.221000000    -4.837000000    -0.040000000
H    -8.740000000    -4.430000000    -0.734000000
H    -7.312000000    -4.684000000    -0.300000000
O    -2.464000000    -7.891000000    -3.794000000
H    -1.812000000    -7.224000000    -3.580000000
H    -2.628000000    -8.340000000    -2.965000000
O    -3.091000000     0.500000000    -1.696000000
H    -2.172000000     0.577000000    -1.439000000
H    -3.404000000    -0.280000000    -1.238000000
O    -0.300000000    -7.277000000     0.289000000
H     0.047000000    -7.850000000     0.974000000
H    -1.103000000    -6.916000000     0.663000000
O     1.320000000    -7.497000000    -4.418000000
H     0.616000000    -7.155000000    -3.867000000
H     0.869000000    -8.002000000    -5.095000000
O    -5.227000000    -2.904000000    -5.649000000
H    -4.624000000    -2.407000000    -5.096000000
H    -4.658000000    -3.402000000    -6.236000000
O    -3.418000000    -1.654000000    -3.711000000
H    -3.300000000    -0.848000000    -3.208000000
H    -2.878000000    -2.301000000    -3.257000000
O    -4.459000000    -4.952000000    -3.141000000
H    -4.449000000    -5.903000000    -3.252000000
H    -3.535000000    -4.702000000    -3.143000000
O    -5.508000000    -4.108000000    -0.155000000
H    -4.608000000    -4.371000000    -0.352000000
H    -5.840000000    -3.757000000    -0.981000000
O    -5.521000000    -7.546000000    -3.001000000
H    -4.935000000    -8.303000000    -3.038000000
H    -5.980000000    -7.640000000    -2.167000000
O    -2.393000000    -8.699000000     2.459000000
H    -2.956000000    -8.964000000     3.186000000
H    -2.695000000    -7.820000000     2.231000000
O    -6.737000000    -3.401000000    -2.659000000
H    -5.937000000    -3.787000000    -3.014000000
H    -7.429000000    -3.697000000    -3.251000000
O    -6.525000000    -6.008000000    -5.075000000
H    -5.967000000    -6.184000000    -4.317000000
H    -7.233000000    -5.465000000    -4.729000000
O     0.925000000    -5.164000000    -6.646000000
H     1.719000000    -4.885000000    -6.189000000
H     0.208000000    -4.834000000    -6.103000000
O    -3.378000000    -5.617000000    -6.327000000
H    -4.069000000    -6.223000000    -6.059000000
H    -3.718000000    -5.203000000    -7.121000000
O    -0.553000000    -6.267000000    -2.415000000
H    -0.530000000    -6.521000000    -1.493000000
H    -0.977000000    -5.409000000    -2.417000000
O    -3.111000000    -6.215000000     1.115000000
H    -3.567000000    -5.744000000     1.813000000
H    -3.017000000    -5.571000000     0.414000000
O    -0.950000000    -4.355000000    -4.967000000
H    -1.830000000    -4.468000000    -5.326000000
H    -1.089000000    -4.208000000    -4.032000000
