215
-1416.79554
C    -4.602000000     1.415000000     0.249000000
H    -4.213000000     2.317000000    -0.216000000
C    -4.296000000     1.198000000     1.618000000
C    -4.806000000     0.031000000     2.168000000
H    -4.574000000    -0.309000000     3.174000000
C    -3.147000000     1.991000000     2.277000000
O    -3.041000000     3.340000000     1.785000000
H    -2.204000000     1.530000000     1.947000000
O    -2.998000000     1.823000000     3.667000000
C    -1.796000000     1.489000000     4.125000000
C    -1.497000000     0.142000000     4.241000000
H    -2.267000000    -0.604000000     4.058000000
C    -0.292000000    -0.261000000     4.647000000
O    -0.120000000    -1.647000000     4.847000000
C     0.768000000     0.636000000     4.744000000
C     2.151000000     0.216000000     5.066000000
H     2.619000000     1.036000000     5.616000000
C     2.803000000    -0.266000000     3.845000000
C     3.705000000     0.662000000     3.292000000
H     3.728000000     1.674000000     3.688000000
H     1.943000000    -0.545000000     5.821000000
C     0.509000000     1.954000000     4.468000000
H     1.342000000     2.651000000     4.501000000
C    -0.794000000     2.452000000     4.220000000
C    -0.999000000     3.925000000     3.862000000
H    -0.269000000     4.535000000     4.398000000
H    -1.930000000     4.372000000     4.216000000
C    -0.823000000     4.059000000     2.406000000
C     0.443000000     4.256000000     1.986000000
H     1.283000000     4.256000000     2.675000000
C    -1.869000000     3.994000000     1.504000000
C    -1.608000000     4.146000000     0.169000000
H    -2.375000000     3.774000000    -0.506000000
C    -0.363000000     4.502000000    -0.265000000
O    -0.210000000     4.626000000    -1.610000000
C     0.526000000     3.582000000    -2.304000000
C    -0.073000000     3.300000000    -3.675000000
C     0.645000000     2.706000000    -4.654000000
H     1.713000000     2.636000000    -4.466000000
C    -1.451000000     3.436000000    -3.811000000
H    -2.114000000     3.936000000    -3.111000000
O     1.894000000     4.016000000    -2.390000000
H     0.426000000     2.663000000    -1.708000000
C     0.706000000     4.534000000     0.625000000
C     2.063000000     5.050000000     0.300000000
H     2.541000000     5.620000000     1.100000000
H     1.877000000     5.742000000    -0.524000000
C     2.943000000     4.003000000    -0.175000000
C     3.643000000     3.298000000     0.762000000
H     3.678000000     3.596000000     1.807000000
C     2.872000000     3.552000000    -1.469000000
C     3.512000000     2.350000000    -1.835000000
H     3.249000000     1.886000000    -2.782000000
C     4.321000000     1.676000000    -0.920000000
O     4.890000000     0.472000000    -1.226000000
C     4.120000000    -0.736000000    -0.928000000
C     4.118000000    -1.717000000    -2.032000000
C     4.199000000    -1.300000000    -3.372000000
H     4.116000000    -0.245000000    -3.621000000
C     3.793000000    -3.088000000    -1.783000000
H     3.650000000    -3.409000000    -0.755000000
O     4.650000000    -1.390000000     0.255000000
H     3.063000000    -0.501000000    -0.735000000
C     4.413000000     2.187000000     0.362000000
C     5.225000000     1.433000000     1.472000000
H     5.532000000     2.140000000     2.245000000
H     6.153000000     1.020000000     1.069000000
C     4.394000000     0.361000000     2.115000000
C     4.288000000    -0.906000000     1.492000000
C     3.457000000    -1.788000000     2.066000000
H     3.158000000    -2.684000000     1.529000000
C     2.713000000    -1.526000000     3.246000000
O     1.908000000    -2.465000000     3.781000000
C     0.402000000    -2.288000000     3.660000000
H     0.224000000    -1.542000000     2.872000000
C    -0.345000000    -3.512000000     3.271000000
C    -1.484000000    -3.873000000     3.945000000
H    -1.612000000    -3.526000000     4.967000000
C     0.116000000    -4.323000000     2.225000000
H     1.067000000    -4.080000000     1.759000000
C    -0.592000000    -5.403000000     1.770000000
O    -0.255000000    -6.108000000     0.621000000
C    -1.798000000    -5.676000000     2.322000000
H    -2.487000000    -6.338000000     1.805000000
C    -2.204000000    -4.987000000     3.476000000
O    -3.392000000    -5.287000000     4.096000000
C    -4.431000000    -4.346000000     4.144000000
C    -4.677000000    -3.499000000     3.064000000
H    -3.868000000    -3.401000000     2.344000000
C    -5.368000000    -4.434000000     5.160000000
H    -5.200000000    -5.263000000     5.842000000
C    -6.465000000    -3.543000000     5.135000000
H    -7.150000000    -3.521000000     5.979000000
C    -6.694000000    -2.769000000     4.043000000
H    -7.544000000    -2.092000000     4.034000000
C    -5.821000000    -2.740000000     3.035000000
O    -6.184000000    -1.997000000     1.977000000
C    -5.579000000    -0.892000000     1.437000000
C    -5.933000000    -0.567000000     0.159000000
H    -6.402000000    -1.234000000    -0.561000000
C    -5.464000000     0.618000000    -0.468000000
O    -5.929000000     0.914000000    -1.730000000
C    -5.516000000     2.020000000    -2.466000000
C    -4.645000000     1.996000000    -3.567000000
H    -4.126000000     1.081000000    -3.840000000
C    -6.143000000     3.253000000    -2.145000000
H    -6.808000000     3.185000000    -1.287000000
C    -5.869000000     4.393000000    -2.846000000
H    -6.380000000     5.329000000    -2.634000000
C    -5.025000000     4.343000000    -3.961000000
H    -4.836000000     5.221000000    -4.572000000
C    -4.411000000     3.134000000    -4.290000000
O    -3.403000000     3.134000000    -5.225000000
C    -2.081000000     2.882000000    -4.935000000
C    -1.279000000     2.338000000    -5.969000000
H    -1.729000000     1.868000000    -6.839000000
C     0.119000000     2.184000000    -5.800000000
O     0.808000000     1.551000000    -6.819000000
C     2.140000000     1.175000000    -6.702000000
C     2.386000000    -0.103000000    -6.260000000
H     1.522000000    -0.748000000    -6.123000000
C     3.171000000     1.980000000    -7.180000000
H     3.007000000     3.012000000    -7.479000000
C     4.481000000     1.502000000    -7.211000000
H     5.287000000     2.129000000    -7.584000000
C     4.758000000     0.282000000    -6.665000000
H     5.764000000    -0.125000000    -6.607000000
C     3.677000000    -0.532000000    -6.173000000
O     3.972000000    -1.778000000    -5.734000000
C     4.074000000    -2.209000000    -4.379000000
C     4.013000000    -3.573000000    -4.134000000
H     4.007000000    -4.320000000    -4.924000000
C     3.831000000    -3.996000000    -2.802000000
O     3.538000000    -5.345000000    -2.618000000
C     2.933000000    -5.795000000    -1.388000000
C     3.811000000    -6.083000000    -0.355000000
H     4.875000000    -6.023000000    -0.566000000
C     3.329000000    -6.575000000     0.912000000
H     3.984000000    -6.865000000     1.730000000
C     1.923000000    -6.696000000     1.106000000
H     1.514000000    -7.073000000     2.040000000
C     1.068000000    -6.218000000     0.166000000
C     1.477000000    -5.744000000    -1.072000000
H     0.794000000    -5.356000000    -1.823000000
C    -2.311000000    -0.906000000    -1.144000000
H    -3.260000000    -1.260000000    -0.750000000
C    -1.442000000    -0.351000000    -0.159000000
H    -1.637000000    -0.441000000     0.907000000
C    -0.228000000     0.183000000    -0.544000000
H     0.419000000     0.531000000     0.265000000
C     0.147000000     0.159000000    -1.862000000
H     1.109000000     0.411000000    -2.301000000
C    -0.748000000    -0.407000000    -2.830000000
H    -0.440000000    -0.513000000    -3.867000000
C    -2.029000000    -0.828000000    -2.476000000
C    -2.999000000    -1.480000000    -3.419000000
O    -2.710000000    -1.722000000    -4.554000000
O    -4.144000000    -1.694000000    -3.091000000
O    -6.330000000    -4.666000000     0.109000000
H    -5.970000000    -4.022000000     0.719000000
H    -6.144000000    -4.304000000    -0.758000000
O    -8.194000000     1.941000000    -3.758000000
H    -7.625000000     2.153000000    -3.018000000
H    -8.887000000     2.601000000    -3.725000000
O    -6.227000000    -3.618000000    -6.855000000
H    -6.842000000    -3.187000000    -7.449000000
H    -5.720000000    -4.204000000    -7.418000000
O    -4.853000000     4.320000000    -7.336000000
H    -5.557000000     3.671000000    -7.331000000
H    -4.144000000     3.909000000    -6.841000000
O    -6.639000000    -1.116000000    -3.807000000
H    -5.755000000    -1.284000000    -3.481000000
H    -6.834000000    -0.223000000    -3.521000000
O    -5.727000000    -6.220000000    -3.357000000
H    -6.534000000    -5.712000000    -3.432000000
H    -5.090000000    -5.608000000    -2.988000000
O    -7.638000000    -3.703000000    -4.315000000
H    -7.316000000    -3.971000000    -5.175000000
H    -7.618000000    -2.746000000    -4.338000000
O    -6.669000000     2.166000000    -6.831000000
H    -6.818000000     2.095000000    -5.888000000
H    -6.917000000     1.309000000    -7.178000000
O    -1.839000000    -5.617000000    -5.477000000
H    -1.212000000    -4.895000000    -5.519000000
H    -2.688000000    -5.191000000    -5.357000000
O    -4.167000000    -0.561000000    -6.403000000
H    -3.589000000    -1.118000000    -5.882000000
H    -4.550000000     0.046000000    -5.769000000
O    -3.937000000    -3.930000000    -5.033000000
H    -3.541000000    -3.195000000    -4.566000000
H    -4.628000000    -3.533000000    -5.563000000
O    -4.314000000    -5.645000000    -7.661000000
H    -4.030000000    -6.115000000    -6.876000000
H    -4.372000000    -6.321000000    -8.336000000
O    -5.932000000    -3.492000000    -2.207000000
H    -5.231000000    -2.873000000    -2.411000000
H    -6.387000000    -3.621000000    -3.039000000
O    -0.589000000    -1.405000000    -8.314000000
H    -0.454000000    -0.537000000    -8.693000000
H    -1.434000000    -1.690000000    -8.660000000
O    -3.348000000    -1.671000000    -9.039000000
H    -3.599000000    -1.464000000    -8.139000000
H    -3.699000000    -0.947000000    -9.558000000
O    -7.647000000    -0.298000000    -7.227000000
H    -7.570000000    -0.903000000    -7.965000000
H    -7.049000000    -0.648000000    -6.567000000
O    -1.906000000    -7.443000000    -2.658000000
H    -1.862000000    -6.737000000    -3.302000000
H    -2.829000000    -7.699000000    -2.645000000
O     1.565000000    -4.237000000    -6.417000000
H     0.966000000    -3.598000000    -6.031000000
H     1.628000000    -4.933000000    -5.763000000
O    -0.610000000    -2.741000000    -6.063000000
H    -1.288000000    -2.265000000    -5.585000000
H    -0.619000000    -2.355000000    -6.939000000
