158
-3009.25307
C    -0.858000000     0.882000000    -0.840000000
H    -1.569000000     1.472000000    -1.414000000
C    -1.174000000     0.331000000     0.420000000
H    -2.079000000     0.682000000     0.910000000
C    -0.225000000    -0.484000000     1.072000000
H    -0.340000000    -0.963000000     2.023000000
C     0.955000000    -0.836000000     0.423000000
H     1.612000000    -1.494000000     0.987000000
C     1.268000000    -0.285000000    -0.789000000
H     2.299000000    -0.432000000    -1.099000000
C     0.381000000     0.613000000    -1.446000000
C     0.638000000     1.115000000    -2.812000000
O     1.656000000     0.742000000    -3.333000000
O    -0.231000000     1.665000000    -3.526000000
O    -0.048000000     4.915000000    -5.493000000
H    -0.808000000     5.456000000    -5.709000000
H     0.154000000     5.138000000    -4.584000000
O     5.485000000     3.713000000    -3.370000000
H     5.556000000     3.098000000    -2.641000000
H     6.267000000     3.552000000    -3.897000000
O    -0.245000000     1.278000000    -7.175000000
H     0.476000000     1.809000000    -6.838000000
H    -0.049000000     0.391000000    -6.875000000
O     4.336000000     0.412000000    -3.854000000
H     4.706000000     0.224000000    -2.991000000
H     3.424000000     0.646000000    -3.678000000
O     0.481000000    -3.569000000    -5.029000000
H     0.132000000    -4.459000000    -5.080000000
H     0.436000000    -3.347000000    -4.099000000
O    -3.470000000    -0.171000000     3.569000000
H    -2.900000000     0.563000000     3.800000000
H    -2.910000000    -0.760000000     3.064000000
O     3.910000000     2.624000000     0.241000000
H     3.104000000     2.273000000     0.621000000
H     4.404000000     2.956000000     0.991000000
O    -1.856000000     2.042000000     4.024000000
H    -2.673000000     2.186000000     4.501000000
H    -1.339000000     2.831000000     4.191000000
O     1.702000000    -5.947000000     3.571000000
H     1.192000000    -6.744000000     3.425000000
H     1.045000000    -5.260000000     3.683000000
O    -0.815000000    -3.831000000     4.052000000
H    -0.738000000    -3.695000000     3.108000000
H    -0.425000000    -3.048000000     4.440000000
O     2.667000000     4.138000000     3.996000000
H     2.879000000     4.192000000     4.928000000
H     2.451000000     3.217000000     3.852000000
O     6.597000000    -1.553000000    -3.832000000
H     5.772000000    -1.771000000    -4.264000000
H     6.427000000    -0.715000000    -3.401000000
O     0.687000000    -1.939000000     4.922000000
H     0.703000000    -0.988000000     5.030000000
H     0.907000000    -2.282000000     5.788000000
O    -2.599000000     2.807000000    -4.095000000
H    -2.526000000     2.764000000    -5.049000000
H    -1.890000000     2.249000000    -3.775000000
O     1.593000000     5.826000000    -3.115000000
H     1.127000000     5.182000000    -2.582000000
H     0.998000000     6.574000000    -3.162000000
O    -2.586000000     5.504000000    -1.830000000
H    -1.750000000     5.119000000    -2.092000000
H    -3.159000000     5.371000000    -2.585000000
O    -3.907000000    -1.537000000     6.190000000
H    -3.056000000    -1.954000000     6.329000000
H    -3.810000000    -1.066000000     5.362000000
O    -6.230000000     0.344000000     3.016000000
H    -6.442000000     0.955000000     3.722000000
H    -5.281000000     0.233000000     3.072000000
O    -3.681000000    -0.934000000    -5.566000000
H    -4.540000000    -1.125000000    -5.189000000
H    -3.064000000    -1.098000000    -4.852000000
O     1.032000000    -0.517000000    -5.640000000
H     1.054000000    -1.386000000    -5.238000000
H     1.224000000     0.084000000    -4.920000000
O    -0.429000000     3.372000000     0.799000000
H     0.408000000     2.973000000     1.038000000
H    -1.079000000     2.695000000     0.987000000
O    -5.770000000     2.043000000    -3.443000000
H    -4.820000000     2.134000000    -3.512000000
H    -6.030000000     2.715000000    -2.813000000
O    -0.796000000     6.136000000     1.260000000
H    -0.177000000     6.131000000     1.991000000
H    -0.989000000     5.211000000     1.105000000
O     4.120000000     3.924000000    -6.294000000
H     3.284000000     3.492000000    -6.118000000
H     4.659000000     3.722000000    -5.529000000
O     1.627000000     1.889000000     1.764000000
H     2.042000000     1.951000000     2.625000000
H     1.546000000     0.949000000     1.604000000
O     3.435000000    -3.000000000    -2.171000000
H     3.855000000    -3.403000000    -2.931000000
H     3.152000000    -2.140000000    -2.483000000
O     2.109000000     1.417000000     4.255000000
H     1.315000000     1.181000000     4.736000000
H     2.821000000     1.243000000     4.871000000
O    -2.956000000    -4.755000000    -0.413000000
H    -3.887000000    -4.703000000    -0.197000000
H    -2.783000000    -3.964000000    -0.923000000
O    -4.713000000     1.983000000     0.588000000
H    -4.632000000     1.315000000    -0.092000000
H    -5.374000000     1.636000000     1.188000000
O     4.456000000    -3.597000000     0.395000000
H     4.056000000    -3.790000000    -0.453000000
H     5.398000000    -3.611000000     0.225000000
O     5.668000000     0.646000000    -1.374000000
H     5.011000000     1.122000000    -0.866000000
H     6.242000000     0.255000000    -0.715000000
O    -0.345000000     4.192000000    -1.890000000
H    -0.298000000     3.384000000    -2.403000000
H    -0.434000000     3.896000000    -0.985000000
O    -3.154000000     1.642000000    -7.273000000
H    -3.452000000     0.777000000    -6.992000000
H    -2.213000000     1.537000000    -7.413000000
O    -4.301000000     4.636000000     0.259000000
H    -3.823000000     4.724000000    -0.565000000
H    -4.275000000     3.699000000     0.453000000
O    -0.460000000    -2.661000000    -1.694000000
H    -0.227000000    -2.180000000    -0.900000000
H    -0.041000000    -3.516000000    -1.588000000
O    -0.166000000     0.672000000     5.685000000
H    -0.492000000     0.417000000     6.549000000
H    -0.785000000     1.336000000     5.383000000
O    -1.903000000    -3.204000000     6.814000000
H    -1.515000000    -3.083000000     7.681000000
H    -1.206000000    -3.601000000     6.293000000
O     3.181000000    -0.262000000    -7.240000000
H     2.661000000    -0.432000000    -6.455000000
H     2.998000000     0.652000000    -7.456000000
O     5.562000000    -1.042000000     0.854000000
H     5.122000000    -1.876000000     1.018000000
H     5.073000000    -0.405000000     1.374000000
O     1.133000000    -4.987000000    -0.714000000
H     0.861000000    -5.844000000    -1.042000000
H     1.857000000    -4.731000000    -1.285000000
O     2.825000000     5.121000000     0.434000000
H     2.271000000     5.472000000    -0.264000000
H     3.134000000     4.281000000     0.095000000
O    -2.233000000    -1.351000000    -3.093000000
H    -1.768000000    -1.858000000    -2.427000000
H    -1.649000000    -0.619000000    -3.288000000
O     3.963000000    -6.205000000     1.887000000
H     3.176000000    -6.107000000     2.422000000
H     4.130000000    -5.327000000     1.543000000
O     5.921000000     1.494000000    -5.732000000
H     5.350000000     1.097000000    -5.074000000
H     5.321000000     1.852000000    -6.386000000
O    -0.521000000    -4.144000000     1.377000000
H    -0.028000000    -4.200000000     0.558000000
H    -1.438000000    -4.200000000     1.108000000
O     1.575000000     2.588000000    -5.720000000
H     1.256000000     2.077000000    -4.976000000
H     1.130000000     3.432000000    -5.638000000
O    -3.002000000    -5.894000000     4.122000000
H    -2.283000000    -5.295000000     4.324000000
H    -2.888000000    -6.101000000     3.195000000
O    -5.021000000    -0.334000000    -0.831000000
H    -5.777000000    -0.716000000    -0.384000000
H    -4.631000000    -1.066000000    -1.309000000
