158
-3043.11879
C    -0.461000000     0.127000000    -1.368000000
H    -1.074000000     0.210000000    -2.261000000
C    -1.084000000     0.636000000    -0.247000000
H    -2.078000000     1.040000000    -0.423000000
C    -0.474000000     0.530000000     0.987000000
H    -1.027000000     0.861000000     1.846000000
C     0.751000000    -0.060000000     1.156000000
H     1.192000000    -0.181000000     2.142000000
C     1.412000000    -0.556000000    -0.001000000
H     2.353000000    -1.081000000     0.140000000
C     0.779000000    -0.498000000    -1.251000000
C     1.253000000    -1.214000000    -2.504000000
O     2.049000000    -2.182000000    -2.382000000
O     0.934000000    -0.762000000    -3.645000000
O    -0.978000000     2.316000000    -4.154000000
H    -1.756000000     1.822000000    -3.895000000
H    -0.816000000     2.910000000    -3.421000000
O     4.722000000    -1.638000000    -1.989000000
H     5.049000000    -2.538000000    -1.971000000
H     3.782000000    -1.722000000    -1.832000000
O    -5.123000000     1.105000000    -1.108000000
H    -4.774000000     0.834000000    -1.957000000
H    -5.897000000     0.556000000    -0.981000000
O     4.712000000     1.434000000    -1.483000000
H     4.108000000     1.670000000    -0.779000000
H     4.875000000     0.500000000    -1.355000000
O     0.495000000    -5.437000000    -2.822000000
H    -0.038000000    -4.821000000    -2.319000000
H     1.267000000    -5.586000000    -2.277000000
O    -1.230000000     3.677000000     3.132000000
H    -1.945000000     3.541000000     3.753000000
H    -1.622000000     3.510000000     2.275000000
O    -0.114000000    -2.441000000    -8.385000000
H     0.792000000    -2.214000000    -8.176000000
H    -0.283000000    -3.239000000    -7.883000000
O    -3.812000000    -1.200000000     1.111000000
H    -4.617000000    -1.676000000     1.318000000
H    -3.812000000    -0.457000000     1.714000000
O     5.175000000    -4.567000000     1.306000000
H     5.271000000    -4.131000000     2.152000000
H     6.004000000    -4.403000000     0.856000000
O     2.485000000    -3.860000000     3.630000000
H     1.535000000    -3.757000000     3.565000000
H     2.821000000    -3.507000000     2.806000000
O     3.632000000    -2.580000000     5.630000000
H     3.590000000    -3.142000000     6.404000000
H     3.140000000    -3.056000000     4.961000000
O    -4.763000000     3.185000000     0.813000000
H    -3.855000000     3.460000000     0.684000000
H    -4.891000000     2.478000000     0.180000000
O     3.089000000     4.209000000    -2.566000000
H     3.461000000     4.001000000    -1.709000000
H     2.800000000     3.365000000    -2.913000000
O    -0.090000000     6.565000000     3.087000000
H    -0.553000000     7.358000000     3.356000000
H    -0.611000000     5.848000000     3.449000000
O    -1.372000000    -3.801000000    -1.891000000
H    -2.205000000    -4.094000000    -1.523000000
H    -1.021000000    -3.195000000    -1.238000000
O    -4.130000000     0.820000000     2.888000000
H    -3.812000000     1.637000000     3.272000000
H    -5.082000000     0.913000000     2.882000000
O    -3.215000000     2.878000000     4.720000000
H    -2.690000000     3.084000000     5.493000000
H    -4.121000000     2.942000000     5.022000000
O     0.951000000    -4.250000000     0.828000000
H     0.232000000    -4.792000000     0.501000000
H     0.546000000    -3.404000000     1.019000000
O     7.835000000    -1.236000000    -0.487000000
H     7.876000000    -0.793000000    -1.335000000
H     7.014000000    -0.935000000    -0.098000000
O    -1.746000000    -1.384000000    -4.087000000
H    -1.628000000    -2.190000000    -3.585000000
H    -0.868000000    -1.008000000    -4.148000000
O    -2.025000000     3.742000000     0.318000000
H    -1.110000000     3.472000000     0.251000000
H    -1.991000000     4.698000000     0.365000000
O     1.405000000     2.304000000     3.656000000
H     1.116000000     1.547000000     4.167000000
H     0.619000000     2.841000000     3.558000000
O     0.031000000     3.985000000    -6.236000000
H    -0.292000000     3.323000000    -5.625000000
H     0.354000000     4.691000000    -5.676000000
O     2.821000000    -4.504000000    -1.511000000
H     2.443000000    -3.666000000    -1.777000000
H     2.617000000    -4.573000000    -0.578000000
O     3.874000000     2.167000000     2.728000000
H     4.160000000     1.390000000     3.209000000
H     2.997000000     2.349000000     3.067000000
O     3.173000000    -4.367000000    -7.045000000
H     2.942000000    -3.781000000    -6.324000000
H     2.354000000    -4.812000000    -7.263000000
O     1.808000000    -3.500000000    -4.876000000
H     1.634000000    -2.684000000    -4.406000000
H     1.743000000    -4.181000000    -4.206000000
O     1.538000000    -0.859000000     5.176000000
H     1.604000000    -0.601000000     6.096000000
H     2.402000000    -1.214000000     4.964000000
O     4.573000000    -0.583000000    -4.594000000
H     4.396000000    -1.321000000    -4.011000000
H     4.518000000     0.187000000    -4.028000000
O     5.842000000    -4.208000000    -3.232000000
H     4.993000000    -4.474000000    -2.879000000
H     6.377000000    -5.001000000    -3.191000000
O    -4.399000000    -1.467000000     6.979000000
H    -5.313000000    -1.742000000     6.912000000
H    -4.006000000    -1.734000000     6.148000000
O     4.528000000    -1.463000000     3.172000000
H     4.604000000    -0.729000000     3.781000000
H     4.572000000    -2.242000000     3.727000000
O     5.751000000    -0.129000000     0.753000000
H     5.382000000    -0.897000000     1.190000000
H     5.898000000     0.500000000     1.459000000
O     2.122000000     1.688000000    -3.181000000
H     2.045000000     0.778000000    -3.468000000
H     1.325000000     2.108000000    -3.504000000
O    -0.747000000    -4.252000000    -6.556000000
H    -0.041000000    -4.332000000    -5.914000000
H    -1.546000000    -4.211000000    -6.030000000
O     0.477000000     5.157000000    -2.408000000
H     1.399000000     4.931000000    -2.291000000
H     0.053000000     4.860000000    -1.603000000
O    -5.736000000     3.765000000     3.402000000
H    -5.342000000     3.561000000     2.554000000
H    -6.544000000     4.230000000     3.185000000
O    -1.531000000    -2.625000000     0.848000000
H    -1.006000000    -1.836000000     0.720000000
H    -2.401000000    -2.300000000     1.080000000
O     3.542000000     0.762000000    -7.985000000
H     3.113000000     1.570000000    -8.269000000
H     2.983000000     0.428000000    -7.283000000
O    -3.223000000    -1.598000000     4.558000000
H    -3.477000000    -1.004000000     3.852000000
H    -3.401000000    -2.472000000     4.211000000
O     0.031000000    -3.208000000     3.508000000
H    -0.734000000    -3.099000000     2.943000000
H     0.059000000    -2.407000000     4.031000000
O    -3.383000000     3.572000000    -2.719000000
H    -3.980000000     2.827000000    -2.781000000
H    -2.809000000     3.359000000    -1.984000000
O     0.484000000     3.221000000     0.056000000
H     1.297000000     3.487000000     0.485000000
H     0.499000000     2.264000000     0.088000000
O    -1.931000000    -0.698000000    -7.269000000
H    -1.205000000    -1.081000000    -7.761000000
H    -1.667000000    -0.775000000    -6.352000000
O     2.848000000    -6.035000000     1.497000000
H     3.548000000    -5.437000000     1.234000000
H     2.042000000    -5.590000000     1.236000000
O     2.047000000    -0.433000000    -5.993000000
H     1.304000000    -0.392000000    -5.391000000
H     2.748000000    -0.835000000    -5.480000000
O    -3.648000000     0.898000000    -3.633000000
H    -2.956000000     0.303000000    -3.922000000
H    -4.246000000     0.950000000    -4.378000000
O     3.490000000     3.952000000     0.477000000
H     3.875000000     3.357000000     1.121000000
H     3.677000000     4.827000000     0.818000000
