158
-3028.51862
C    -0.800000000     0.354000000    -1.285000000
H    -1.460000000     0.676000000    -2.086000000
C    -1.182000000     0.551000000     0.090000000
H    -2.202000000     0.832000000     0.341000000
C    -0.436000000     0.037000000     1.143000000
H    -0.906000000    -0.093000000     2.144000000
C     0.817000000    -0.394000000     0.867000000
H     1.370000000    -0.830000000     1.694000000
C     1.338000000    -0.416000000    -0.394000000
H     2.354000000    -0.790000000    -0.496000000
C     0.538000000    -0.097000000    -1.501000000
C     1.071000000    -0.154000000    -2.888000000
O     2.058000000    -0.811000000    -3.070000000
O     0.368000000     0.225000000    -3.839000000
O     1.320000000     1.644000000    -6.075000000
H     1.937000000     1.254000000    -6.695000000
H     1.271000000     1.013000000    -5.357000000
O     4.039000000    -2.466000000    -2.908000000
H     3.339000000    -1.828000000    -2.769000000
H     3.634000000    -3.311000000    -2.717000000
O    -2.633000000     3.509000000    -1.192000000
H    -3.074000000     2.973000000    -1.851000000
H    -2.754000000     3.029000000    -0.372000000
O     2.665000000     4.336000000    -5.051000000
H     2.619000000     3.672000000    -5.739000000
H     2.949000000     3.855000000    -4.273000000
O     3.891000000     1.020000000    -4.762000000
H     4.025000000     0.873000000    -3.826000000
H     3.491000000     0.210000000    -5.077000000
O    -1.394000000     2.007000000    -4.961000000
H    -0.674000000     1.408000000    -4.765000000
H    -1.700000000     1.738000000    -5.827000000
O    -1.525000000     2.757000000     4.026000000
H    -2.048000000     2.268000000     3.391000000
H    -0.881000000     3.226000000     3.495000000
O     1.696000000    -3.048000000     3.169000000
H     1.536000000    -3.671000000     3.877000000
H     1.924000000    -2.232000000     3.614000000
O     1.989000000    -5.261000000    -1.683000000
H     2.181000000    -5.055000000    -0.768000000
H     1.132000000    -4.867000000    -1.843000000
O     1.039000000    -2.696000000     6.004000000
H     1.125000000    -1.820000000     6.381000000
H     1.704000000    -3.217000000     6.455000000
O     0.920000000     3.574000000     6.091000000
H     0.046000000     3.531000000     6.480000000
H     0.934000000     2.859000000     5.455000000
O     0.045000000     4.958000000     2.302000000
H     0.182000000     5.339000000     1.434000000
H     0.888000000     5.056000000     2.742000000
O    -3.638000000    -1.525000000    -3.294000000
H    -4.464000000    -1.944000000    -3.536000000
H    -3.824000000    -1.090000000    -2.462000000
O     5.336000000    -2.929000000    -5.380000000
H     4.989000000    -2.412000000    -4.653000000
H     4.989000000    -3.809000000    -5.236000000
O    -1.624000000    -2.424000000    -0.204000000
H    -1.054000000    -1.698000000     0.051000000
H    -1.103000000    -2.930000000    -0.828000000
O    -3.288000000     4.604000000     4.888000000
H    -2.812000000     3.857000000     4.525000000
H    -4.014000000     4.743000000     4.280000000
O    -1.205000000    -2.352000000     4.014000000
H    -0.788000000    -2.908000000     3.356000000
H    -0.653000000    -2.444000000     4.791000000
O     5.457000000     0.155000000     3.890000000
H     5.691000000     0.785000000     4.572000000
H     5.142000000     0.695000000     3.164000000
O    -5.749000000    -3.283000000    -0.288000000
H    -6.536000000    -2.931000000     0.130000000
H    -5.170000000    -2.527000000    -0.384000000
O    -1.288000000    -1.493000000    -4.641000000
H    -2.080000000    -1.245000000    -4.165000000
H    -0.629000000    -0.860000000    -4.356000000
O     0.064000000    -3.210000000    -2.267000000
H     0.513000000    -2.535000000    -2.777000000
H    -0.338000000    -3.779000000    -2.923000000
O    -3.840000000     2.758000000    -3.293000000
H    -3.867000000     3.620000000    -3.708000000
H    -3.727000000     2.146000000    -4.020000000
O     1.582000000    -4.120000000    -5.277000000
H     2.228000000    -4.807000000    -5.117000000
H     1.640000000    -3.950000000    -6.217000000
O    -5.859000000    -0.329000000     1.808000000
H    -6.558000000     0.213000000     1.443000000
H    -6.287000000    -1.156000000     2.028000000
O     2.591000000    -3.881000000     0.862000000
H     2.287000000    -3.514000000     1.692000000
H     3.489000000    -3.560000000     0.773000000
O    -3.298000000    -0.784000000     5.217000000
H    -2.759000000    -1.475000000     4.833000000
H    -4.194000000    -1.014000000     4.972000000
O     6.782000000    -2.866000000    -1.776000000
H     6.048000000    -2.389000000    -2.164000000
H     7.495000000    -2.229000000    -1.750000000
O     3.903000000     0.917000000    -1.857000000
H     4.492000000     0.582000000    -1.181000000
H     3.371000000     0.162000000    -2.107000000
O     5.069000000    -3.048000000     0.619000000
H     5.803000000    -3.264000000     0.044000000
H     4.911000000    -2.117000000     0.466000000
O     3.086000000    -0.981000000     4.572000000
H     3.907000000    -0.588000000     4.276000000
H     3.266000000    -1.266000000     5.468000000
O     4.197000000     1.469000000     1.954000000
H     3.357000000     1.321000000     1.520000000
H     4.473000000     2.335000000     1.654000000
O     0.545000000    -0.622000000    -7.941000000
H    -0.268000000    -0.217000000    -7.637000000
H     0.959000000    -0.954000000    -7.145000000
O    -0.588000000     3.920000000    -3.196000000
H    -1.141000000     3.841000000    -2.419000000
H    -0.980000000     3.321000000    -3.831000000
O     1.447000000     0.069000000     7.206000000
H     0.729000000     0.493000000     7.675000000
H     1.575000000     0.609000000     6.426000000
O     5.322000000    -0.406000000     0.328000000
H     6.207000000    -0.218000000     0.015000000
H     5.108000000     0.334000000     0.897000000
O    -1.143000000    -3.362000000    -6.619000000
H    -1.164000000    -2.537000000    -6.135000000
H    -0.888000000    -4.016000000    -5.968000000
O     2.248000000    -1.305000000    -5.569000000
H     2.120000000    -1.069000000    -4.650000000
H     1.978000000    -2.222000000    -5.621000000
O    -3.728000000     1.079000000     3.258000000
H    -3.795000000     0.840000000     4.183000000
H    -4.564000000     0.805000000     2.879000000
O    -3.570000000     2.934000000     1.281000000
H    -3.483000000     2.389000000     2.063000000
H    -4.086000000     3.687000000     1.570000000
O    -3.989000000    -0.971000000    -0.739000000
H    -3.140000000    -1.413000000    -0.758000000
H    -4.067000000    -0.640000000     0.156000000
O     1.277000000     1.122000000     4.532000000
H     0.522000000     1.050000000     3.948000000
H     1.886000000     0.453000000     4.220000000
O     2.771000000     3.243000000    -2.467000000
H     3.034000000     2.353000000    -2.232000000
H     1.816000000     3.205000000    -2.520000000
O    -2.884000000     1.680000000     6.124000000
H    -2.441000000     1.996000000     5.337000000
H    -2.917000000     0.729000000     6.015000000
O    -2.482000000    -4.800000000     0.934000000
H    -2.505000000    -3.997000000     0.412000000
H    -1.558000000    -4.913000000     1.157000000
O    -5.846000000     4.108000000    -0.557000000
H    -5.519000000     4.822000000    -0.009000000
H    -5.131000000     3.472000000    -0.574000000
O     0.284000000    -5.091000000     1.022000000
H     0.491000000    -5.614000000     1.796000000
H     1.119000000    -4.699000000     0.767000000
O     4.121000000    -1.441000000    -7.268000000
H     4.719000000    -1.967000000    -6.736000000
H     3.371000000    -1.280000000    -6.696000000
O    -6.467000000     0.380000000    -1.631000000
H    -5.581000000     0.020000000    -1.584000000
H    -6.672000000     0.389000000    -2.566000000
