158
-3020.48362
C    -0.825000000     0.845000000    -0.981000000
H    -1.508000000     1.392000000    -1.625000000
C    -1.233000000     0.474000000     0.315000000
H    -2.214000000     0.801000000     0.650000000
C    -0.399000000    -0.415000000     1.041000000
H    -0.770000000    -0.821000000     2.038000000
C     0.894000000    -0.739000000     0.687000000
H     1.572000000    -1.274000000     1.346000000
C     1.355000000    -0.268000000    -0.565000000
H     2.386000000    -0.400000000    -0.880000000
C     0.521000000     0.535000000    -1.355000000
C     1.029000000     1.049000000    -2.641000000
O     2.199000000     1.037000000    -2.905000000
O     0.209000000     1.594000000    -3.383000000
O    -4.221000000    -4.644000000    -0.383000000
H    -3.367000000    -4.237000000    -0.236000000
H    -4.829000000    -4.121000000     0.140000000
O    -2.637000000     4.167000000    -0.143000000
H    -2.980000000     3.292000000    -0.325000000
H    -1.746000000     4.014000000     0.173000000
O    -4.919000000    -0.662000000    -1.390000000
H    -5.243000000    -0.060000000    -0.720000000
H    -5.698000000    -1.138000000    -1.681000000
O     0.594000000    -2.353000000    -5.191000000
H     0.899000000    -2.918000000    -5.901000000
H    -0.141000000    -2.830000000    -4.805000000
O     4.250000000     1.650000000    -1.117000000
H     3.849000000     1.057000000    -0.481000000
H     3.559000000     1.817000000    -1.758000000
O     4.285000000     2.490000000    -6.828000000
H     3.615000000     2.058000000    -6.298000000
H     5.080000000     2.440000000    -6.296000000
O    -4.279000000    -1.274000000     6.537000000
H    -4.712000000    -1.201000000     5.687000000
H    -4.238000000    -2.216000000     6.705000000
O     4.769000000    -2.851000000    -4.905000000
H     4.883000000    -3.701000000    -4.481000000
H     4.190000000    -2.365000000    -4.318000000
O     1.770000000     0.765000000    -5.863000000
H     1.011000000     0.322000000    -6.242000000
H     1.453000000     1.113000000    -5.030000000
O    -1.102000000     3.068000000     2.590000000
H    -1.526000000     2.359000000     3.074000000
H    -0.175000000     2.829000000     2.579000000
O     3.275000000     4.717000000    -5.541000000
H     3.036000000     4.181000000    -4.784000000
H     3.659000000     4.097000000    -6.161000000
O     5.784000000     0.153000000    -3.575000000
H     5.087000000     0.187000000    -2.920000000
H     6.339000000    -0.575000000    -3.297000000
O     2.666000000     3.703000000     3.862000000
H     2.159000000     3.671000000     4.673000000
H     2.037000000     3.479000000     3.177000000
O     1.468000000     2.021000000     1.707000000
H     1.900000000     1.674000000     2.488000000
H     0.849000000     1.337000000     1.452000000
O    -2.704000000     1.443000000     4.452000000
H    -2.776000000     2.273000000     4.922000000
H    -2.242000000     0.863000000     5.057000000
O     6.332000000    -0.094000000     2.381000000
H     5.997000000     0.761000000     2.651000000
H     5.565000000    -0.556000000     2.043000000
O    -2.355000000     0.348000000    -3.978000000
H    -2.437000000     0.357000000    -4.931000000
H    -1.493000000     0.727000000    -3.808000000
O    -6.361000000     3.028000000    -2.118000000
H    -6.298000000     2.472000000    -2.895000000
H    -5.582000000     3.583000000    -2.157000000
O     0.966000000     1.773000000     6.596000000
H     1.209000000     2.699000000     6.594000000
H     1.290000000     1.442000000     7.433000000
O    -2.997000000     5.025000000     3.420000000
H    -2.499000000     5.793000000     3.139000000
H    -2.371000000     4.303000000     3.372000000
O     5.003000000     4.654000000    -2.724000000
H     5.615000000     4.083000000    -3.188000000
H     4.153000000     4.224000000    -2.820000000
O     4.234000000    -1.773000000     1.668000000
H     3.444000000    -2.059000000     2.126000000
H     4.272000000    -2.325000000     0.887000000
O     2.826000000    -1.435000000    -3.688000000
H     2.111000000    -1.596000000    -4.304000000
H     2.712000000    -0.522000000    -3.423000000
O     2.069000000    -3.977000000     4.767000000
H     1.358000000    -4.614000000     4.694000000
H     1.656000000    -3.199000000     5.142000000
O    -1.884000000     6.616000000    -2.933000000
H    -1.024000000     7.034000000    -2.886000000
H    -1.704000000     5.684000000    -2.805000000
O     2.935000000    -5.664000000     2.508000000
H     3.892000000    -5.662000000     2.472000000
H     2.709000000    -4.825000000     2.909000000
O    -4.897000000     0.607000000     2.619000000
H    -4.796000000     1.160000000     3.394000000
H    -4.850000000     1.216000000     1.882000000
O     5.309000000    -2.739000000    -0.912000000
H     5.848000000    -2.801000000    -1.700000000
H     5.888000000    -3.021000000    -0.203000000
O     2.804000000    -3.751000000    -2.018000000
H     2.690000000    -3.015000000    -2.619000000
H     3.684000000    -3.635000000    -1.660000000
O     7.026000000     2.154000000    -0.722000000
H     6.091000000     1.969000000    -0.806000000
H     7.449000000     1.519000000    -1.299000000
O    -1.448000000    -3.309000000     0.321000000
H    -1.444000000    -2.352000000     0.280000000
H    -0.534000000    -3.558000000     0.189000000
O    -0.174000000    -1.995000000     4.518000000
H    -0.502000000    -2.872000000     4.320000000
H    -0.859000000    -1.599000000     5.056000000
O     3.371000000    -1.237000000    -6.843000000
H     3.807000000    -1.604000000    -6.074000000
H     2.728000000    -0.625000000    -6.485000000
O    -5.121000000     2.806000000     0.613000000
H    -6.028000000     2.777000000     0.308000000
H    -4.691000000     3.427000000     0.025000000
O    -0.126000000    -5.112000000     4.407000000
H    -0.727000000    -5.398000000     5.094000000
H    -0.485000000    -5.489000000     3.603000000
O     0.976000000     0.437000000     4.151000000
H     0.921000000     0.872000000     5.003000000
H     0.354000000    -0.287000000     4.212000000
O    -0.243000000    -0.362000000    -7.458000000
H     0.067000000    -1.232000000    -7.709000000
H    -0.913000000    -0.529000000    -6.795000000
O     2.478000000     3.721000000    -3.284000000
H     2.324000000     2.782000000    -3.186000000
H     1.602000000     4.102000000    -3.348000000
O    -4.607000000     5.117000000    -2.186000000
H    -5.102000000     5.530000000    -1.479000000
H    -3.695000000     5.342000000    -2.004000000
O     0.300000000     3.664000000    -0.166000000
H     0.752000000     3.061000000     0.424000000
H     0.950000000     4.340000000    -0.360000000
O    -5.142000000    -1.761000000     4.005000000
H    -5.462000000    -2.386000000     3.355000000
H    -4.651000000    -1.116000000     3.496000000
O     6.298000000     2.768000000    -4.299000000
H     6.248000000     1.931000000    -3.837000000
H     6.874000000     2.596000000    -5.044000000
O    -5.337000000     0.595000000    -4.607000000
H    -4.575000000     0.408000000    -4.058000000
H    -5.390000000    -0.150000000    -5.205000000
O    -0.760000000     3.867000000    -2.819000000
H    -0.372000000     3.110000000    -3.259000000
H    -0.529000000     3.753000000    -1.897000000
O    -1.905000000    -5.836000000     1.778000000
H    -1.851000000    -5.040000000     1.248000000
H    -2.841000000    -5.952000000     1.941000000
O    -1.753000000    -0.537000000     6.045000000
H    -1.374000000    -0.449000000     6.919000000
H    -2.674000000    -0.747000000     6.203000000
O    -3.321000000    -2.134000000    -3.143000000
H    -3.768000000    -1.816000000    -2.359000000
H    -2.803000000    -1.387000000    -3.443000000
O     1.169000000    -4.800000000     0.078000000
H     1.726000000    -5.422000000     0.546000000
H     1.777000000    -4.283000000    -0.450000000
