158
-3027.82244
C    -1.331000000     0.538000000    -0.171000000
H    -2.375000000     0.744000000    -0.390000000
C    -0.890000000    -0.049000000     1.006000000
H    -1.561000000    -0.261000000     1.835000000
C     0.467000000    -0.404000000     1.060000000
H     1.020000000    -0.822000000     1.927000000
C     1.318000000    -0.173000000    -0.014000000
H     2.337000000    -0.522000000     0.133000000
C     0.802000000     0.261000000    -1.203000000
H     1.460000000     0.346000000    -2.064000000
C    -0.499000000     0.638000000    -1.322000000
C    -1.094000000     1.164000000    -2.630000000
O    -0.458000000     1.042000000    -3.663000000
O    -2.094000000     1.892000000    -2.609000000
O    -2.270000000    -5.149000000    -0.607000000
H    -1.823000000    -4.303000000    -0.625000000
H    -3.040000000    -5.002000000    -0.058000000
O    -3.087000000    -2.182000000    -1.873000000
H    -2.323000000    -2.560000000    -1.438000000
H    -3.568000000    -1.742000000    -1.173000000
O    -4.185000000    -0.869000000     0.330000000
H    -4.964000000    -0.339000000     0.160000000
H    -3.560000000    -0.257000000     0.719000000
O    -4.281000000     0.257000000    -5.013000000
H    -4.432000000    -0.384000000    -5.708000000
H    -5.041000000     0.171000000    -4.438000000
O     2.489000000     2.884000000    -2.252000000
H     3.187000000     2.939000000    -2.906000000
H     1.727000000     2.575000000    -2.742000000
O     3.586000000    -1.303000000    -3.841000000
H     3.903000000    -0.904000000    -3.031000000
H     2.819000000    -0.783000000    -4.080000000
O    -2.184000000     1.465000000    -5.706000000
H    -3.009000000     1.021000000    -5.508000000
H    -1.651000000     1.341000000    -4.920000000
O     0.412000000    -4.966000000     5.513000000
H     1.113000000    -5.555000000     5.234000000
H     0.180000000    -4.479000000     4.722000000
O     4.876000000     1.322000000     5.143000000
H     4.606000000     1.690000000     5.984000000
H     4.951000000     2.080000000     4.563000000
O    -1.030000000    -2.443000000     6.903000000
H    -0.167000000    -2.602000000     6.520000000
H    -1.039000000    -1.505000000     7.093000000
O     0.340000000     2.913000000     1.623000000
H    -0.171000000     2.192000000     1.255000000
H    -0.285000000     3.634000000     1.700000000
O    -5.687000000     3.791000000    -3.547000000
H    -6.063000000     4.058000000    -2.709000000
H    -6.438000000     3.506000000    -4.067000000
O    -0.664000000    -1.514000000    -7.303000000
H    -1.128000000    -1.729000000    -6.494000000
H    -0.242000000    -0.674000000    -7.121000000
O     2.314000000     1.876000000     3.128000000
H     2.918000000     2.505000000     3.522000000
H     1.583000000     2.409000000     2.816000000
O    -4.744000000     1.579000000    -1.709000000
H    -5.270000000     1.529000000    -2.507000000
H    -3.856000000     1.757000000    -2.019000000
O     3.936000000    -2.678000000     2.038000000
H     4.879000000    -2.770000000     2.177000000
H     3.649000000    -2.085000000     2.733000000
O    -2.356000000     6.148000000    -4.193000000
H    -2.872000000     5.696000000    -4.861000000
H    -2.127000000     5.464000000    -3.564000000
O     4.214000000     2.271000000     1.044000000
H     3.555000000     2.021000000     1.692000000
H     4.870000000     1.575000000     1.090000000
O    -2.099000000    -1.651000000    -4.408000000
H    -2.210000000    -1.636000000    -3.458000000
H    -2.260000000    -0.748000000    -4.682000000
O     1.830000000     1.226000000    -4.856000000
H     1.337000000     1.206000000    -5.676000000
H     1.164000000     1.142000000    -4.174000000
O     1.386000000    -2.396000000     5.370000000
H     1.138000000    -2.562000000     4.460000000
H     1.814000000    -1.541000000     5.349000000
O    -3.679000000     4.073000000    -5.327000000
H    -4.387000000     3.816000000    -4.736000000
H    -3.153000000     3.280000000    -5.429000000
O     1.192000000    -3.485000000     2.715000000
H     0.785000000    -4.104000000     2.108000000
H     2.128000000    -3.543000000     2.524000000
O     4.585000000     0.462000000    -1.670000000
H     5.258000000     0.179000000    -1.050000000
H     4.302000000     1.315000000    -1.342000000
O     3.666000000    -5.563000000     4.297000000
H     3.499000000    -5.765000000     3.376000000
H     3.218000000    -6.257000000     4.780000000
O    -6.455000000     0.902000000     0.347000000
H    -6.007000000     1.641000000    -0.065000000
H    -6.823000000     1.264000000     1.154000000
O     1.574000000     0.362000000     5.032000000
H     1.241000000     0.922000000     5.734000000
H     1.744000000     0.962000000     4.307000000
O     2.803000000    -3.765000000    -2.819000000
H     3.663000000    -4.183000000    -2.851000000
H     2.930000000    -2.922000000    -3.253000000
O    -2.512000000     1.963000000     4.225000000
H    -2.333000000     2.378000000     5.069000000
H    -2.027000000     1.139000000     4.256000000
O     4.281000000     2.532000000    -4.218000000
H     5.158000000     2.677000000    -4.573000000
H     3.827000000     2.034000000    -4.897000000
O     3.925000000    -5.684000000     1.584000000
H     4.708000000    -5.316000000     1.994000000
H     4.259000000    -6.202000000     0.852000000
O     0.135000000     5.624000000    -6.314000000
H    -0.154000000     5.171000000    -5.522000000
H     1.053000000     5.372000000    -6.412000000
O    -0.636000000    -3.005000000    -0.453000000
H    -0.333000000    -2.213000000    -0.009000000
H     0.148000000    -3.549000000    -0.534000000
O    -0.977000000    -0.228000000     4.555000000
H    -0.024000000    -0.322000000     4.576000000
H    -1.294000000    -1.072000000     4.234000000
O     4.178000000    -1.416000000     4.961000000
H     4.489000000    -1.618000000     5.844000000
H     4.047000000    -0.468000000     4.964000000
O    -2.533000000     3.730000000     1.879000000
H    -2.409000000     3.126000000     2.611000000
H    -3.474000000     3.706000000     1.706000000
O     0.348000000     0.953000000    -6.904000000
H    -0.375000000     1.394000000    -6.459000000
H     0.516000000     1.490000000    -7.678000000
O     0.128000000     3.643000000    -4.360000000
H    -0.514000000     3.396000000    -3.694000000
H     0.466000000     2.809000000    -4.687000000
O     1.278000000    -6.526000000     0.511000000
H     2.057000000    -6.072000000     0.834000000
H     0.957000000    -5.972000000    -0.201000000
O    -3.964000000    -3.372000000     1.527000000
H    -4.087000000    -2.550000000     1.052000000
H    -4.725000000    -3.431000000     2.105000000
O     2.314000000    -3.207000000    -0.038000000
H     2.691000000    -3.173000000    -0.918000000
H     3.065000000    -3.114000000     0.547000000
O     5.509000000    -0.141000000     1.073000000
H     5.834000000    -0.882000000     0.563000000
H     5.001000000    -0.540000000     1.779000000
O    -2.064000000     4.565000000    -2.082000000
H    -1.908000000     3.667000000    -2.376000000
H    -2.194000000     4.488000000    -1.137000000
O    -1.461000000    -2.839000000     3.177000000
H    -2.011000000    -3.068000000     2.428000000
H    -0.575000000    -3.075000000     2.905000000
O     1.993000000     4.468000000    -0.180000000
H     2.276000000     3.841000000    -0.845000000
H     1.821000000     3.934000000     0.595000000
O     5.796000000     3.329000000    -1.057000000
H     5.128000000     2.987000000    -0.463000000
H     6.543000000     2.742000000    -0.942000000
O    -5.005000000     0.773000000     3.706000000
H    -5.115000000     0.327000000     4.545000000
H    -4.161000000     1.219000000     3.781000000
O     0.841000000    -5.147000000    -1.735000000
H     1.580000000    -4.546000000    -1.827000000
H     0.640000000    -5.417000000    -2.631000000
