158
-3023.53516
C    -0.811000000     0.845000000    -0.922000000
H    -1.447000000     1.505000000    -1.506000000
C    -1.071000000     0.703000000     0.443000000
H    -1.933000000     1.121000000     0.957000000
C    -0.207000000    -0.122000000     1.184000000
H    -0.304000000    -0.101000000     2.228000000
C     0.746000000    -0.916000000     0.546000000
H     1.346000000    -1.613000000     1.125000000
C     0.950000000    -0.743000000    -0.833000000
H     1.698000000    -1.357000000    -1.326000000
C     0.226000000     0.212000000    -1.548000000
C     0.504000000     0.376000000    -3.008000000
O     0.146000000     1.315000000    -3.663000000
O     1.078000000    -0.607000000    -3.492000000
O    -2.198000000    -2.579000000    -0.859000000
H    -1.337000000    -2.188000000    -1.004000000
H    -2.661000000    -1.943000000    -0.313000000
O     3.001000000    -2.657000000    -3.656000000
H     3.520000000    -2.106000000    -4.242000000
H     2.303000000    -2.083000000    -3.342000000
O    -1.744000000    -0.826000000    -6.365000000
H    -1.165000000    -1.571000000    -6.207000000
H    -2.469000000    -0.950000000    -5.753000000
O     2.693000000     1.995000000    -8.339000000
H     2.435000000     1.577000000    -7.517000000
H     3.100000000     2.819000000    -8.072000000
O     2.059000000    -1.799000000    -7.482000000
H     1.617000000    -1.958000000    -6.648000000
H     1.623000000    -1.026000000    -7.840000000
O     4.258000000    -1.530000000    -5.907000000
H     3.611000000    -1.387000000    -6.598000000
H     4.810000000    -0.748000000    -5.929000000
O     5.555000000    -3.590000000    -1.487000000
H     6.165000000    -3.621000000    -2.225000000
H     5.728000000    -4.396000000    -1.000000000
O     2.273000000     3.118000000    -3.998000000
H     1.864000000     3.974000000    -4.127000000
H     1.548000000     2.539000000    -3.763000000
O     1.594000000     5.514000000    -4.811000000
H     1.217000000     5.797000000    -5.644000000
H     2.506000000     5.802000000    -4.851000000
O    -2.570000000     0.237000000     4.511000000
H    -1.729000000    -0.174000000     4.713000000
H    -3.101000000    -0.471000000     4.147000000
O     4.115000000    -5.347000000    -3.783000000
H     3.518000000    -5.871000000    -3.249000000
H     3.945000000    -4.444000000    -3.515000000
O    -4.409000000    -0.972000000    -0.284000000
H    -4.183000000    -0.052000000    -0.421000000
H    -5.028000000    -1.174000000    -0.986000000
O    -1.497000000     2.252000000     6.320000000
H    -1.868000000     1.758000000     5.589000000
H    -2.103000000     2.099000000     7.045000000
O     1.269000000    -6.569000000     1.496000000
H     1.906000000    -6.104000000     2.039000000
H     0.442000000    -6.115000000     1.655000000
O    -3.910000000     4.571000000    -1.482000000
H    -3.221000000     4.282000000    -2.081000000
H    -3.632000000     5.443000000    -1.200000000
O    -4.159000000     1.744000000    -1.273000000
H    -4.752000000     2.370000000    -0.857000000
H    -3.369000000     2.252000000    -1.460000000
O     1.707000000     1.617000000     5.740000000
H     1.275000000     2.426000000     5.464000000
H     1.612000000     1.609000000     6.693000000
O    -2.041000000    -4.564000000     1.806000000
H    -2.060000000    -4.522000000     0.850000000
H    -1.529000000    -3.800000000     2.070000000
O    -1.055000000    -1.543000000     7.339000000
H    -1.556000000    -0.730000000     7.270000000
H    -1.568000000    -2.090000000     7.934000000
O    -1.735000000    -3.163000000    -3.371000000
H    -2.282000000    -2.535000000    -3.842000000
H    -1.937000000    -3.012000000    -2.448000000
O     4.059000000     2.712000000     1.278000000
H     3.819000000     2.350000000     2.131000000
H     4.789000000     2.169000000     0.984000000
O    -1.411000000     2.462000000    -6.013000000
H    -0.952000000     1.758000000    -5.555000000
H    -0.722000000     2.926000000    -6.489000000
O    -4.222000000     2.344000000     3.650000000
H    -3.632000000     2.946000000     3.196000000
H    -3.663000000     1.613000000     3.913000000
O     0.252000000     0.159000000    -7.873000000
H     0.163000000     1.106000000    -7.767000000
H    -0.415000000    -0.211000000    -7.294000000
O     1.448000000     3.330000000     0.168000000
H     2.244000000     2.996000000     0.582000000
H     0.925000000     2.549000000    -0.011000000
O     0.845000000    -3.341000000     7.622000000
H     0.209000000    -2.763000000     7.201000000
H     0.969000000    -2.967000000     8.494000000
O     4.637000000     2.623000000    -2.980000000
H     3.753000000     2.851000000    -3.267000000
H     5.064000000     3.465000000    -2.826000000
O     1.948000000     1.068000000    -5.683000000
H     2.240000000     1.863000000    -5.239000000
H     1.519000000     0.554000000    -4.998000000
O     4.871000000    -0.148000000     1.088000000
H     4.164000000    -0.694000000     1.430000000
H     5.620000000    -0.346000000     1.649000000
O    -5.113000000     0.361000000    -3.292000000
H    -4.710000000     0.855000000    -2.577000000
H    -5.740000000    -0.217000000    -2.858000000
O     0.427000000    -2.687000000     3.372000000
H     0.562000000    -3.494000000     3.868000000
H     0.160000000    -2.044000000     4.029000000
O     3.272000000     1.337000000     3.602000000
H     2.631000000     1.536000000     4.284000000
H     3.133000000     0.411000000     3.404000000
O    -4.970000000     4.727000000     1.086000000
H    -4.329000000     4.736000000     0.375000000
H    -5.518000000     3.963000000     0.905000000
O     0.577000000    -5.065000000     4.780000000
H     1.412000000    -5.474000000     5.005000000
H     0.049000000    -5.779000000     4.423000000
O     0.143000000    -0.581000000     4.983000000
H    -0.123000000    -0.922000000     5.837000000
H     0.767000000     0.115000000     5.187000000
O    -2.324000000     3.187000000    -3.283000000
H    -1.521000000     2.669000000    -3.234000000
H    -2.584000000     3.139000000    -4.203000000
O    -4.335000000    -1.503000000     3.296000000
H    -5.199000000    -1.242000000     2.978000000
H    -4.106000000    -2.268000000     2.768000000
O    -2.025000000     4.484000000     2.575000000
H    -1.668000000     4.785000000     1.740000000
H    -1.532000000     3.688000000     2.773000000
O    -3.723000000    -1.678000000    -4.553000000
H    -4.332000000    -1.514000000    -5.274000000
H    -3.893000000    -0.970000000    -3.931000000
O     3.000000000    -3.681000000    -0.273000000
H     3.761000000    -3.596000000    -0.847000000
H     3.361000000    -3.980000000     0.562000000
O    -0.616000000     2.393000000     3.306000000
H    -1.044000000     1.554000000     3.479000000
H     0.246000000     2.157000000     2.964000000
O     6.050000000     1.045000000    -1.189000000
H     5.459000000     0.706000000    -0.517000000
H     5.490000000     1.579000000    -1.753000000
O    -4.061000000     1.470000000    -5.877000000
H    -4.298000000     1.584000000    -4.956000000
H    -3.113000000     1.604000000    -5.898000000
O     2.954000000    -1.420000000     3.247000000
H     2.262000000    -2.012000000     2.952000000
H     3.226000000    -1.772000000     4.095000000
O     0.084000000     5.573000000     0.664000000
H     0.200000000     5.988000000    -0.190000000
H     0.544000000     4.737000000     0.589000000
O     1.145000000    -4.537000000    -1.962000000
H     1.710000000    -4.305000000    -1.226000000
H     1.487000000    -4.027000000    -2.697000000
O     0.362000000    -2.355000000    -5.346000000
H     0.679000000    -1.732000000    -4.692000000
H    -0.270000000    -2.898000000    -4.873000000
O     3.949000000     3.841000000    -6.189000000
H     4.210000000     4.753000000    -6.321000000
H     3.520000000     3.837000000    -5.333000000
