158
-3016.52136
C    -1.456000000     0.172000000    -0.390000000
H    -2.532000000     0.324000000    -0.433000000
C    -0.975000000    -0.410000000     0.789000000
H    -1.652000000    -0.689000000     1.593000000
C     0.420000000    -0.505000000     1.040000000
H     0.762000000    -0.836000000     2.053000000
C     1.283000000    -0.080000000     0.082000000
H     2.353000000    -0.213000000     0.215000000
C     0.820000000     0.473000000    -1.130000000
H     1.572000000     0.740000000    -1.868000000
C    -0.555000000     0.681000000    -1.303000000
C    -1.014000000     1.327000000    -2.601000000
O    -2.162000000     1.709000000    -2.705000000
O    -0.203000000     1.615000000    -3.451000000
O    -2.792000000    -4.699000000     4.564000000
H    -2.211000000    -4.250000000     3.950000000
H    -3.407000000    -5.175000000     4.007000000
O    -0.091000000     4.811000000    -4.019000000
H    -0.232000000     3.875000000    -4.161000000
H     0.406000000     5.097000000    -4.786000000
O     0.572000000    -0.809000000    -7.406000000
H     0.875000000    -1.694000000    -7.202000000
H     0.218000000    -0.876000000    -8.293000000
O     2.568000000    -3.065000000    -3.678000000
H     2.111000000    -3.333000000    -2.881000000
H     2.380000000    -2.130000000    -3.760000000
O     4.335000000    -2.057000000    -1.390000000
H     4.604000000    -1.161000000    -1.595000000
H     3.861000000    -1.981000000    -0.561000000
O    -0.971000000    -0.169000000    -5.395000000
H    -0.516000000     0.315000000    -4.705000000
H    -0.346000000    -0.198000000    -6.119000000
O    -5.003000000    -0.172000000     4.861000000
H    -4.796000000    -0.292000000     5.788000000
H    -5.321000000     0.729000000     4.801000000
O    -1.387000000    -2.636000000    -1.589000000
H    -0.949000000    -1.798000000    -1.441000000
H    -2.117000000    -2.637000000    -0.970000000
O     3.401000000    -5.522000000     2.453000000
H     4.079000000    -5.778000000     1.827000000
H     3.425000000    -6.204000000     3.124000000
O     3.269000000    -0.163000000    -4.003000000
H     4.051000000     0.041000000    -3.490000000
H     2.886000000     0.690000000    -4.205000000
O     4.756000000     0.711000000     0.427000000
H     5.494000000     0.119000000     0.283000000
H     4.242000000     0.290000000     1.116000000
O    -3.937000000     0.938000000    -5.777000000
H    -3.843000000     0.781000000    -4.838000000
H    -3.113000000     1.354000000    -6.033000000
O    -2.314000000    -0.599000000     5.509000000
H    -2.809000000    -1.314000000     5.909000000
H    -2.702000000    -0.497000000     4.639000000
O     4.176000000    -4.982000000    -1.106000000
H     5.020000000    -5.103000000    -0.671000000
H     4.230000000    -4.107000000    -1.493000000
O     6.135000000     3.171000000     2.379000000
H     5.659000000     3.843000000     2.867000000
H     5.533000000     2.426000000     2.348000000
O    -2.098000000     4.951000000    -1.819000000
H    -2.872000000     4.416000000    -1.994000000
H    -1.442000000     4.632000000    -2.439000000
O    -5.364000000     0.089000000    -0.260000000
H    -5.221000000     0.237000000    -1.194000000
H    -6.264000000    -0.233000000    -0.203000000
O     3.099000000     4.069000000    -2.745000000
H     2.772000000     3.277000000    -3.171000000
H     3.710000000     4.447000000    -3.378000000
O     0.830000000     0.048000000     4.268000000
H     1.264000000     0.718000000     4.797000000
H     0.227000000     0.538000000     3.709000000
O    -4.305000000     3.348000000    -2.229000000
H    -3.544000000     2.808000000    -2.438000000
H    -4.583000000     3.708000000    -3.071000000
O     0.527000000    -2.642000000     4.537000000
H     1.343000000    -2.926000000     4.949000000
H     0.674000000    -1.720000000     4.325000000
O     0.432000000     2.546000000     2.158000000
H     0.469000000     3.417000000     1.761000000
H     0.812000000     1.966000000     1.498000000
O    -5.087000000     5.198000000    -0.015000000
H    -5.250000000     5.558000000    -0.886000000
H    -4.954000000     4.262000000    -0.164000000
O    -1.205000000    -3.822000000     7.172000000
H    -1.397000000    -3.781000000     6.235000000
H    -0.483000000    -3.206000000     7.296000000
O     1.905000000     4.240000000    -6.173000000
H     2.812000000     4.212000000    -6.475000000
H     1.388000000     4.333000000    -6.973000000
O     2.103000000     2.105000000    -4.517000000
H     2.059000000     2.838000000    -5.131000000
H     1.211000000     2.017000000    -4.183000000
O     3.989000000    -2.670000000     1.529000000
H     4.772000000    -2.163000000     1.746000000
H     4.077000000    -3.476000000     2.038000000
O    -3.718000000    -2.338000000     0.269000000
H    -4.216000000    -2.771000000     0.963000000
H    -4.023000000    -1.431000000     0.285000000
O    -0.533000000    -4.017000000     2.290000000
H     0.130000000    -4.135000000     1.609000000
H    -0.075000000    -3.555000000     2.992000000
O     3.766000000    -0.194000000     3.031000000
H     3.243000000    -0.008000000     3.810000000
H     3.591000000    -1.115000000     2.840000000
O    -4.339000000     4.283000000    -4.665000000
H    -5.134000000     3.940000000    -5.073000000
H    -4.291000000     5.192000000    -4.960000000
O     6.556000000    -1.371000000     1.476000000
H     6.576000000    -2.266000000     1.815000000
H     6.982000000    -0.848000000     2.156000000
O    -4.923000000     2.242000000     2.020000000
H    -4.954000000     1.478000000     1.445000000
H    -5.646000000     2.795000000     1.725000000
O     2.924000000    -3.386000000     5.635000000
H     3.612000000    -3.987000000     5.347000000
H     3.392000000    -2.689000000     6.094000000
O    -1.888000000     2.847000000    -5.295000000
H    -2.617000000     3.266000000    -4.839000000
H    -1.383000000     2.424000000    -4.602000000
O    -2.278000000     5.660000000     0.748000000
H    -3.143000000     5.251000000     0.784000000
H    -1.995000000     5.542000000    -0.159000000
O    -1.975000000     3.637000000    -8.175000000
H    -2.496000000     4.438000000    -8.229000000
H    -2.141000000     3.303000000    -7.293000000
O    -4.963000000    -4.151000000    -1.590000000
H    -4.402000000    -4.701000000    -2.137000000
H    -4.374000000    -3.792000000    -0.927000000
O     0.891000000    -4.201000000    -1.708000000
H     0.031000000    -3.829000000    -1.516000000
H     1.246000000    -4.439000000    -0.852000000
O    -2.354000000     1.867000000     3.112000000
H    -1.599000000     1.761000000     2.534000000
H    -3.056000000     2.169000000     2.535000000
O     5.557000000     0.161000000    -2.501000000
H     6.030000000     0.583000000    -1.785000000
H     6.176000000     0.163000000    -3.232000000
O    -4.201000000     0.075000000    -3.000000000
H    -3.484000000     0.681000000    -2.813000000
H    -3.769000000    -0.707000000    -3.345000000
O     1.624000000    -4.189000000     0.893000000
H     2.039000000    -3.332000000     0.988000000
H     2.274000000    -4.808000000     1.225000000
O    -1.625000000    -6.604000000     2.257000000
H    -2.575000000    -6.634000000     2.376000000
H    -1.446000000    -5.702000000     1.992000000
O     2.743000000     2.920000000     0.366000000
H     2.240000000     3.209000000    -0.396000000
H     3.322000000     2.238000000     0.026000000
O    -2.140000000     1.691000000     6.624000000
H    -1.921000000     0.925000000     6.094000000
H    -3.010000000     1.501000000     6.974000000
O     1.972000000     2.027000000     5.768000000
H     2.285000000     2.881000000     5.472000000
H     2.224000000     1.986000000     6.691000000
O    -2.805000000    -1.964000000    -3.912000000
H    -2.348000000    -1.459000000    -4.585000000
H    -2.136000000    -2.143000000    -3.251000000
