158
-3034.38777
C    -1.307000000     0.049000000    -0.683000000
H    -2.338000000     0.054000000    -1.026000000
C    -1.036000000     0.236000000     0.658000000
H    -1.857000000     0.306000000     1.368000000
C     0.207000000     0.062000000     1.194000000
H     0.350000000     0.134000000     2.265000000
C     1.280000000    -0.001000000     0.313000000
H     2.302000000     0.014000000     0.683000000
C     1.089000000    -0.165000000    -1.020000000
H     1.989000000    -0.399000000    -1.582000000
C    -0.243000000    -0.174000000    -1.539000000
C    -0.598000000    -0.494000000    -2.990000000
O     0.152000000    -0.404000000    -3.963000000
O    -1.759000000    -0.906000000    -3.168000000
O    -1.900000000    -4.617000000    -4.024000000
H    -1.081000000    -4.454000000    -3.556000000
H    -2.528000000    -4.016000000    -3.624000000
O    -2.968000000     5.442000000     0.796000000
H    -3.127000000     4.504000000     0.696000000
H    -2.016000000     5.517000000     0.870000000
O    -3.114000000    -3.033000000    -2.202000000
H    -3.060000000    -2.215000000    -2.696000000
H    -2.450000000    -2.944000000    -1.518000000
O    -5.510000000    -1.317000000    -4.664000000
H    -5.023000000    -1.716000000    -5.384000000
H    -6.425000000    -1.534000000    -4.844000000
O     0.456000000    -2.717000000    -7.836000000
H    -0.061000000    -2.925000000    -7.058000000
H     0.669000000    -1.788000000    -7.740000000
O     1.088000000    -0.078000000    -7.628000000
H     0.731000000     0.416000000    -6.890000000
H     1.785000000     0.478000000    -7.974000000
O     1.975000000     1.430000000    -4.653000000
H     1.656000000     2.073000000    -5.286000000
H     1.214000000     0.882000000    -4.464000000
O    -1.111000000     0.855000000    -6.069000000
H    -1.689000000     0.198000000    -6.457000000
H    -0.742000000     0.424000000    -5.298000000
O     0.740000000    -0.389000000     5.242000000
H     0.987000000     0.410000000     4.778000000
H     0.850000000    -1.086000000     4.595000000
O    -3.608000000    -3.286000000     3.268000000
H    -3.521000000    -2.603000000     2.603000000
H    -2.812000000    -3.811000000     3.177000000
O     6.241000000    -1.399000000    -4.201000000
H     6.666000000    -2.232000000    -4.407000000
H     5.689000000    -1.592000000    -3.443000000
O     0.096000000     4.532000000     7.408000000
H    -0.810000000     4.816000000     7.291000000
H     0.276000000     3.983000000     6.645000000
O    -2.144000000     2.038000000     4.146000000
H    -3.080000000     1.843000000     4.113000000
H    -1.742000000     1.227000000     4.458000000
O     4.356000000    -2.139000000    -2.057000000
H     4.366000000    -2.933000000    -1.522000000
H     3.861000000    -2.384000000    -2.839000000
O     0.137000000    -4.414000000     5.223000000
H    -0.132000000    -3.701000000     5.802000000
H     0.479000000    -3.975000000     4.445000000
O    -2.435000000     3.077000000    -3.027000000
H    -3.213000000     3.175000000    -2.477000000
H    -2.542000000     2.221000000    -3.443000000
O     4.319000000    -1.695000000     3.816000000
H     5.158000000    -1.278000000     4.016000000
H     4.557000000    -2.513000000     3.380000000
O    -5.552000000    -3.974000000    -3.020000000
H    -4.956000000    -3.392000000    -2.549000000
H    -5.697000000    -4.706000000    -2.420000000
O     3.246000000     2.728000000     0.963000000
H     3.278000000     3.517000000     0.422000000
H     2.813000000     2.076000000     0.411000000
O    -3.777000000     0.565000000    -3.391000000
H    -4.441000000     0.014000000    -3.806000000
H    -3.075000000    -0.042000000    -3.155000000
O     3.303000000    -0.042000000     6.453000000
H     2.490000000    -0.282000000     6.010000000
H     3.788000000    -0.864000000     6.527000000
O    -1.737000000    -2.201000000    -6.218000000
H    -2.112000000    -2.989000000    -5.823000000
H    -1.354000000    -1.724000000    -5.482000000
O     2.099000000     2.472000000    -2.205000000
H     2.536000000     2.407000000    -3.054000000
H     1.188000000     2.242000000    -2.387000000
O    -0.951000000    -2.072000000     6.638000000
H    -0.312000000    -1.633000000     6.077000000
H    -1.792000000    -1.926000000     6.204000000
O     1.689000000    -2.390000000     3.632000000
H     1.750000000    -2.576000000     2.695000000
H     2.594000000    -2.238000000     3.905000000
O     4.637000000     0.998000000    -4.184000000
H     3.826000000     1.165000000    -4.665000000
H     5.059000000     0.288000000    -4.666000000
O    -4.838000000    -0.053000000    -0.401000000
H    -4.572000000     0.767000000    -0.818000000
H    -5.133000000    -0.605000000    -1.125000000
O     1.796000000     2.704000000     6.141000000
H     2.184000000     2.036000000     5.577000000
H     1.914000000     2.367000000     7.029000000
O     2.451000000    -2.096000000    -4.058000000
H     2.674000000    -2.460000000    -4.915000000
H     1.816000000    -1.405000000    -4.248000000
O    -3.291000000     2.761000000     1.103000000
H    -4.088000000     2.596000000     1.607000000
H    -2.596000000     2.804000000     1.761000000
O     1.600000000    -3.171000000    -0.439000000
H     1.965000000    -2.327000000    -0.707000000
H     2.361000000    -3.687000000    -0.172000000
O    -3.238000000    -1.673000000     1.348000000
H    -3.683000000    -1.294000000     0.590000000
H    -2.624000000    -0.994000000     1.629000000
O     5.119000000     1.296000000     2.418000000
H     5.866000000     1.891000000     2.471000000
H     4.481000000     1.760000000     1.875000000
O    -4.642000000     1.381000000     4.188000000
H    -5.232000000     0.776000000     4.636000000
H    -5.154000000     1.715000000     3.451000000
O    -4.703000000     3.747000000    -1.065000000
H    -4.256000000     3.232000000    -0.393000000
H    -5.357000000     4.253000000    -0.583000000
O     6.213000000    -1.115000000     0.810000000
H     5.973000000    -0.448000000     1.453000000
H     5.790000000    -0.831000000     0.000000000
O     0.738000000     2.890000000    -6.764000000
H    -0.117000000     2.460000000    -6.748000000
H     0.572000000     3.740000000    -7.172000000
O     1.534000000     5.184000000    -1.771000000
H     1.392000000     4.321000000    -2.161000000
H     2.199000000     5.037000000    -1.099000000
O    -3.534000000    -1.444000000     5.345000000
H    -4.377000000    -1.493000000     5.796000000
H    -3.737000000    -1.654000000     4.434000000
O    -0.252000000     5.599000000     0.912000000
H    -0.079000000     4.688000000     0.676000000
H     0.260000000     5.741000000     1.708000000
O     0.760000000    -4.184000000    -3.021000000
H     0.638000000    -3.897000000    -2.116000000
H     1.431000000    -3.597000000    -3.370000000
O    -1.433000000     4.562000000     3.760000000
H    -0.509000000     4.756000000     3.599000000
H    -1.487000000     3.607000000     3.721000000
O     5.227000000     0.359000000    -1.466000000
H     5.043000000    -0.538000000    -1.746000000
H     4.877000000     0.906000000    -2.169000000
O    -1.315000000    -3.261000000    -0.060000000
H    -0.385000000    -3.057000000     0.039000000
H    -1.733000000    -2.847000000     0.695000000
O     0.484000000     3.021000000     0.383000000
H     0.073000000     2.175000000     0.563000000
H     1.147000000     2.829000000    -0.280000000
O     2.390000000     1.276000000     3.481000000
H     3.040000000     0.607000000     3.265000000
H     2.477000000     1.927000000     2.785000000
O     1.187000000     5.404000000     3.483000000
H     2.065000000     5.128000000     3.220000000
H     1.319000000     6.256000000     3.899000000
O     3.818000000     4.348000000     3.338000000
H     4.429000000     5.046000000     3.102000000
H     3.749000000     3.813000000     2.547000000
