158
-3003.56188
C    -1.129000000     0.886000000    -0.149000000
H    -2.050000000     1.453000000    -0.261000000
C    -0.835000000     0.098000000     0.937000000
H    -1.535000000    -0.001000000     1.763000000
C     0.284000000    -0.705000000     0.916000000
H     0.439000000    -1.236000000     1.763000000
C     1.183000000    -0.656000000    -0.120000000
H     2.092000000    -1.252000000    -0.094000000
C     0.931000000     0.188000000    -1.223000000
H     1.617000000     0.186000000    -2.067000000
C    -0.296000000     0.902000000    -1.230000000
C    -0.648000000     1.741000000    -2.405000000
O    -1.539000000     2.605000000    -2.283000000
O    -0.095000000     1.607000000    -3.505000000
O    -2.782000000    -2.681000000     1.771000000
H    -2.030000000    -3.272000000     1.827000000
H    -3.441000000    -3.078000000     2.340000000
O     4.243000000    -2.962000000    -4.253000000
H     4.915000000    -2.364000000    -3.923000000
H     3.465000000    -2.414000000    -4.354000000
O     1.036000000     4.969000000     0.322000000
H     1.781000000     5.108000000    -0.264000000
H     1.196000000     4.111000000     0.714000000
O     2.355000000    -1.068000000    -4.405000000
H     1.467000000    -0.712000000    -4.351000000
H     2.924000000    -0.308000000    -4.282000000
O     0.207000000     2.499000000    -6.018000000
H    -0.546000000     2.359000000    -5.444000000
H     0.968000000     2.333000000    -5.461000000
O     3.012000000     5.322000000    -1.883000000
H     3.628000000     5.821000000    -2.419000000
H     2.819000000     4.541000000    -2.402000000
O    -1.427000000    -1.347000000    -6.574000000
H    -0.642000000    -1.296000000    -7.120000000
H    -1.529000000    -0.464000000    -6.218000000
O     0.068000000    -3.879000000    -4.825000000
H    -0.774000000    -3.963000000    -4.377000000
H     0.166000000    -2.939000000    -4.975000000
O    -5.797000000     1.328000000     2.195000000
H    -6.093000000     0.649000000     2.801000000
H    -5.645000000     0.865000000     1.371000000
O     1.502000000    -4.157000000    -1.569000000
H     2.208000000    -4.631000000    -1.130000000
H     1.810000000    -3.252000000    -1.611000000
O     5.895000000    -0.449000000    -2.993000000
H     6.234000000    -0.828000000    -2.182000000
H     5.803000000     0.484000000    -2.800000000
O    -2.023000000     4.021000000    -6.455000000
H    -1.191000000     3.673000000    -6.776000000
H    -2.551000000     4.146000000    -7.244000000
O    -2.206000000     1.230000000     5.992000000
H    -1.464000000     0.979000000     6.542000000
H    -2.807000000     0.488000000     6.048000000
O     3.938000000    -2.684000000    -1.158000000
H     4.343000000    -1.894000000    -0.802000000
H     3.816000000    -2.492000000    -2.088000000
O     0.553000000    -7.161000000     1.991000000
H    -0.323000000    -7.308000000     2.347000000
H     0.529000000    -6.264000000     1.657000000
O    -0.843000000     5.257000000    -1.678000000
H    -1.075000000     4.330000000    -1.618000000
H    -0.121000000     5.364000000    -1.059000000
O    -4.421000000     4.372000000     1.185000000
H    -4.696000000     3.535000000     1.560000000
H    -3.709000000     4.666000000     1.752000000
O     0.038000000     2.508000000     4.178000000
H     0.223000000     1.699000000     4.655000000
H     0.647000000     2.497000000     3.440000000
O    -3.922000000    -5.922000000     1.770000000
H    -3.617000000    -6.026000000     0.869000000
H    -3.125000000    -5.953000000     2.298000000
O    -0.989000000    -4.093000000    -2.444000000
H    -1.159000000    -3.203000000    -2.135000000
H    -0.117000000    -4.301000000    -2.107000000
O    -3.299000000     3.491000000    -3.958000000
H    -2.680000000     3.044000000    -3.380000000
H    -2.793000000     3.684000000    -4.747000000
O     0.392000000    -0.158000000     6.066000000
H    -0.491000000    -0.505000000     5.940000000
H     0.968000000    -0.835000000     5.713000000
O     1.272000000     2.466000000     1.371000000
H     1.842000000     1.880000000     1.870000000
H     0.719000000     1.879000000     0.855000000
O    -3.506000000     5.644000000    -2.446000000
H    -2.758000000     5.559000000    -1.854000000
H    -3.531000000     4.814000000    -2.921000000
O    -4.526000000     1.662000000    -1.504000000
H    -4.996000000     2.168000000    -2.167000000
H    -3.640000000     2.024000000    -1.510000000
O    -7.253000000     1.082000000    -0.480000000
H    -7.397000000     0.219000000    -0.090000000
H    -6.447000000     0.984000000    -0.985000000
O     5.346000000     1.908000000    -2.361000000
H     6.009000000     2.559000000    -2.593000000
H     4.879000000     2.296000000    -1.621000000
O    -6.189000000     3.713000000    -4.425000000
H    -5.290000000     3.429000000    -4.596000000
H    -6.686000000     2.899000000    -4.349000000
O     3.181000000     1.394000000    -3.814000000
H     4.024000000     1.673000000    -3.454000000
H     2.634000000     2.178000000    -3.775000000
O     4.826000000    -2.046000000     2.583000000
H     5.506000000    -2.707000000     2.454000000
H     4.046000000    -2.548000000     2.817000000
O    -3.190000000    -2.231000000    -0.851000000
H    -4.144000000    -2.316000000    -0.827000000
H    -2.913000000    -2.395000000     0.050000000
O     0.672000000    -3.245000000     5.011000000
H     0.283000000    -4.042000000     5.372000000
H    -0.007000000    -2.579000000     5.116000000
O     2.892000000     0.850000000     2.980000000
H     3.447000000     1.433000000     3.498000000
H     3.068000000    -0.023000000     3.332000000
O    -0.051000000     5.824000000    -4.063000000
H    -0.321000000     5.895000000    -3.147000000
H     0.100000000     6.728000000    -4.339000000
O     3.242000000    -4.397000000     3.220000000
H     2.818000000    -4.434000000     4.077000000
H     3.772000000    -5.194000000     3.181000000
O    -1.733000000    -1.705000000     4.822000000
H    -2.562000000    -1.741000000     5.300000000
H    -1.907000000    -1.121000000     4.084000000
O     1.632000000     3.721000000    -3.802000000
H     1.116000000     4.522000000    -3.887000000
H     0.982000000     3.026000000    -3.702000000
O    -2.976000000    -0.445000000    -2.781000000
H    -2.962000000    -1.048000000    -2.037000000
H    -3.483000000     0.305000000    -2.472000000
O     3.482000000    -5.269000000     0.138000000
H     3.706000000    -4.352000000     0.299000000
H     3.341000000    -5.637000000     1.011000000
O    -3.152000000     2.761000000     3.450000000
H    -3.908000000     2.173000000     3.456000000
H    -2.542000000     2.373000000     4.077000000
O     4.444000000    -0.350000000     0.506000000
H     4.510000000    -0.764000000     1.366000000
H     4.261000000     0.570000000     0.696000000
O    -2.124000000     0.915000000    -5.344000000
H    -1.651000000     0.977000000    -4.514000000
H    -2.906000000     1.452000000    -5.215000000
O     2.767000000    -1.444000000     4.585000000
H     2.153000000    -2.163000000     4.438000000
H     3.588000000    -1.875000000     4.824000000
O     0.035000000    -4.187000000     1.855000000
H     0.756000000    -3.753000000     1.398000000
H     0.346000000    -4.285000000     2.755000000
O     4.227000000     3.412000000     0.004000000
H     4.547000000     3.411000000     0.906000000
H     4.381000000     4.304000000    -0.304000000
O    -1.093000000     1.801000000    -8.736000000
H    -0.995000000     1.849000000    -7.785000000
H    -0.607000000     2.557000000    -9.065000000
O    -0.471000000    -0.986000000    -3.882000000
H    -0.195000000    -0.167000000    -3.471000000
H    -1.425000000    -0.984000000    -3.804000000
O     3.687000000     4.856000000    -5.513000000
H     3.798000000     5.652000000    -4.993000000
H     2.851000000     4.493000000    -5.220000000
