158
-3017.02185
C    -1.201000000     0.734000000     0.422000000
H    -2.115000000     1.237000000     0.730000000
C    -0.875000000    -0.506000000     0.902000000
H    -1.480000000    -1.062000000     1.613000000
C     0.344000000    -1.046000000     0.459000000
H     0.515000000    -2.002000000     0.760000000
C     1.160000000    -0.433000000    -0.469000000
H     2.067000000    -0.933000000    -0.797000000
C     0.746000000     0.771000000    -1.008000000
H     1.340000000     1.209000000    -1.806000000
C    -0.372000000     1.358000000    -0.546000000
C    -0.735000000     2.744000000    -1.190000000
O    -1.703000000     3.348000000    -0.781000000
O     0.115000000     3.332000000    -1.806000000
O    -0.846000000     5.701000000    -2.575000000
H    -0.736000000     4.854000000    -2.143000000
H    -0.121000000     5.747000000    -3.199000000
O    -1.382000000     7.741000000     0.486000000
H    -1.104000000     6.978000000    -0.021000000
H    -1.226000000     8.485000000    -0.095000000
O    -2.242000000    -5.763000000    -2.954000000
H    -3.111000000    -5.373000000    -2.856000000
H    -1.677000000    -5.232000000    -2.392000000
O     4.879000000    -2.933000000    -1.515000000
H     4.901000000    -3.889000000    -1.463000000
H     3.947000000    -2.715000000    -1.528000000
O     2.206000000    -4.853000000     1.745000000
H     2.457000000    -3.933000000     1.826000000
H     1.744000000    -4.902000000     0.908000000
O    -3.517000000     6.380000000    -2.559000000
H    -3.758000000     6.769000000    -3.400000000
H    -2.562000000     6.440000000    -2.532000000
O     4.620000000     5.689000000    -2.448000000
H     4.949000000     5.242000000    -3.227000000
H     3.785000000     5.261000000    -2.260000000
O    -3.764000000    -0.483000000    -1.406000000
H    -4.673000000    -0.783000000    -1.387000000
H    -3.765000000     0.316000000    -0.879000000
O     0.970000000    -1.818000000    -3.678000000
H     1.228000000    -2.422000000    -2.981000000
H     0.071000000    -2.068000000    -3.890000000
O    -4.702000000     3.053000000    -4.448000000
H    -4.376000000     3.297000000    -3.581000000
H    -4.518000000     3.816000000    -4.996000000
O     5.230000000    -2.755000000     3.537000000
H     5.764000000    -2.243000000     2.930000000
H     5.808000000    -3.460000000     3.829000000
O     4.618000000     0.180000000    -0.759000000
H     5.061000000    -0.665000000    -0.686000000
H     5.327000000     0.814000000    -0.866000000
O     1.030000000     6.048000000    -4.359000000
H     0.209000000     5.960000000    -4.844000000
H     1.711000000     5.860000000    -5.005000000
O     2.875000000    -7.525000000     0.779000000
H     3.372000000    -8.112000000     1.348000000
H     2.932000000    -6.671000000     1.207000000
O    -2.607000000    -0.722000000     6.831000000
H    -3.369000000    -0.226000000     6.530000000
H    -2.378000000    -1.282000000     6.089000000
O     0.620000000    -5.246000000    -0.513000000
H     0.822000000    -5.994000000    -1.075000000
H    -0.288000000    -5.388000000    -0.242000000
O    -4.226000000     3.649000000    -1.837000000
H    -3.373000000     3.474000000    -1.440000000
H    -4.230000000     4.594000000    -1.991000000
O    -4.436000000     1.714000000     0.298000000
H    -5.215000000     1.312000000    -0.085000000
H    -4.078000000     2.259000000    -0.403000000
O    -2.003000000    -4.807000000     0.002000000
H    -1.866000000    -3.970000000    -0.443000000
H    -2.855000000    -4.714000000     0.429000000
O     0.309000000     5.129000000     0.304000000
H     0.073000000     4.543000000    -0.414000000
H    -0.309000000     4.914000000     1.002000000
O    -0.156000000    -2.734000000     3.470000000
H     0.779000000    -2.939000000     3.439000000
H    -0.189000000    -1.794000000     3.644000000
O     0.800000000     2.249000000     2.778000000
H     0.524000000     1.519000000     3.332000000
H     0.287000000     2.150000000     1.977000000
O    -2.386000000    -4.011000000     3.949000000
H    -1.823000000    -4.745000000     4.197000000
H    -1.802000000    -3.404000000     3.494000000
O    -6.958000000     4.565000000    -1.424000000
H    -6.170000000     4.022000000    -1.451000000
H    -6.930000000     4.986000000    -0.565000000
O     2.278000000     4.224000000    -2.869000000
H     1.762000000     4.807000000    -3.424000000
H     1.657000000     3.903000000    -2.215000000
O    -4.268000000     6.929000000     1.626000000
H    -3.441000000     7.188000000     2.032000000
H    -4.108000000     6.044000000     1.298000000
O     2.688000000    -2.554000000     3.053000000
H     2.614000000    -1.602000000     3.130000000
H     3.598000000    -2.742000000     3.281000000
O    -1.021000000    -3.864000000     6.564000000
H    -0.264000000    -4.348000000     6.234000000
H    -1.424000000    -3.488000000     5.781000000
O     5.491000000    -0.906000000    -4.061000000
H     4.595000000    -0.722000000    -3.779000000
H     5.741000000    -0.141000000    -4.579000000
O     3.106000000     0.253000000     2.524000000
H     2.772000000     0.247000000     1.627000000
H     3.006000000     1.160000000     2.812000000
O     6.184000000    -0.414000000     2.395000000
H     5.247000000    -0.225000000     2.439000000
H     6.587000000     0.241000000     2.966000000
O    -3.701000000     1.331000000     2.815000000
H    -4.581000000     1.042000000     3.054000000
H    -3.736000000     1.449000000     1.866000000
O     1.819000000    -4.358000000     6.687000000
H     1.842000000    -4.490000000     5.739000000
H     2.414000000    -3.624000000     6.841000000
O     2.376000000    -1.579000000    -6.582000000
H     1.996000000    -1.089000000    -5.854000000
H     2.765000000    -2.352000000    -6.174000000
O    -3.347000000     4.326000000     1.085000000
H    -2.871000000     3.917000000     0.362000000
H    -3.611000000     3.595000000     1.642000000
O     2.124000000    -3.963000000    -2.545000000
H     2.302000000    -4.833000000    -2.901000000
H     1.436000000    -4.106000000    -1.895000000
O     2.671000000     5.409000000     1.647000000
H     2.079000000     5.168000000     0.935000000
H     2.827000000     6.345000000     1.523000000
O     4.789000000    -5.674000000    -0.840000000
H     5.411000000    -6.247000000    -1.288000000
H     4.063000000    -6.250000000    -0.600000000
O    -2.207000000     0.804000000    -5.091000000
H    -1.273000000     0.978000000    -5.213000000
H    -2.445000000     0.246000000    -5.831000000
O    -1.720000000    -2.311000000    -1.626000000
H    -2.441000000    -1.697000000    -1.763000000
H    -1.236000000    -1.950000000    -0.883000000
O    -0.900000000     0.029000000     4.033000000
H    -1.693000000     0.417000000     3.663000000
H    -0.778000000     0.481000000     4.868000000
O     0.251000000     1.816000000    -5.935000000
H     0.845000000     1.799000000    -5.185000000
H     0.735000000     2.288000000    -6.613000000
O     3.802000000     2.553000000    -4.450000000
H     3.867000000     1.682000000    -4.058000000
H     3.125000000     2.996000000    -3.940000000
O    -6.516000000     0.520000000    -0.719000000
H    -7.059000000    -0.088000000    -0.216000000
H    -7.141000000     1.028000000    -1.236000000
O     1.637000000    -6.231000000     4.240000000
H     2.579000000    -6.381000000     4.314000000
H     1.529000000    -5.801000000     3.392000000
O    -4.981000000    -3.461000000     1.715000000
H    -4.053000000    -3.568000000     1.503000000
H    -5.150000000    -4.121000000     2.387000000
O     2.991000000     0.006000000    -3.141000000
H     3.115000000     0.058000000    -2.193000000
H     2.160000000    -0.457000000    -3.249000000
O    -2.649000000    -7.709000000     0.979000000
H    -1.937000000    -8.075000000     1.504000000
H    -2.326000000    -6.851000000     0.703000000
