158
-3064.58818
C     0.097000000     0.208000000    -1.450000000
H     0.000000000     0.496000000    -2.494000000
C    -1.099000000    -0.040000000    -0.750000000
H    -2.107000000    -0.030000000    -1.158000000
C    -1.031000000    -0.280000000     0.598000000
H    -1.918000000    -0.556000000     1.141000000
C     0.169000000    -0.119000000     1.302000000
H     0.160000000    -0.073000000     2.388000000
C     1.371000000     0.024000000     0.547000000
H     2.325000000     0.027000000     1.067000000
C     1.347000000     0.209000000    -0.823000000
C     2.583000000     0.470000000    -1.635000000
O     2.517000000     0.746000000    -2.809000000
O     3.647000000     0.514000000    -1.098000000
O     1.264000000     2.265000000    -4.408000000
H     1.381000000     1.595000000    -3.735000000
H     1.353000000     1.792000000    -5.236000000
O     3.961000000    -1.397000000    -6.583000000
H     3.231000000    -1.117000000    -6.031000000
H     3.547000000    -1.705000000    -7.390000000
O    -2.357000000    -3.907000000    -0.787000000
H    -2.273000000    -4.526000000    -0.061000000
H    -2.897000000    -4.364000000    -1.431000000
O     2.362000000     4.132000000    -5.966000000
H     2.163000000     3.575000000    -5.214000000
H     3.105000000     3.703000000    -6.391000000
O     0.221000000    -2.931000000    -0.468000000
H     0.070000000    -2.124000000     0.025000000
H    -0.610000000    -3.100000000    -0.912000000
O    -0.010000000    -0.722000000    -6.316000000
H     0.274000000    -1.014000000    -7.182000000
H     0.539000000    -1.214000000    -5.706000000
O    -7.565000000     0.879000000    -1.613000000
H    -7.466000000     1.796000000    -1.357000000
H    -6.938000000     0.409000000    -1.063000000
O     2.348000000    -4.692000000     0.239000000
H     2.965000000    -4.083000000     0.644000000
H     1.574000000    -4.159000000     0.052000000
O     5.761000000    -0.678000000     1.611000000
H     5.668000000     0.213000000     1.274000000
H     6.625000000    -0.689000000     2.022000000
O    -3.565000000    -1.740000000    -3.991000000
H    -2.970000000    -0.994000000    -3.917000000
H    -2.993000000    -2.488000000    -4.161000000
O    -0.542000000    -3.949000000     2.078000000
H    -0.998000000    -4.768000000     1.887000000
H    -0.490000000    -3.501000000     1.234000000
O     2.469000000    -2.415000000     3.244000000
H     2.891000000    -2.500000000     2.389000000
H     2.137000000    -3.293000000     3.435000000
O    -1.266000000     3.563000000    -4.445000000
H    -1.496000000     4.011000000    -5.259000000
H    -0.332000000     3.373000000    -4.532000000
O    -3.520000000     1.745000000     1.733000000
H    -2.596000000     1.898000000     1.532000000
H    -3.970000000     2.518000000     1.391000000
O    -5.636000000    -0.402000000     0.132000000
H    -4.992000000     0.277000000     0.331000000
H    -5.145000000    -1.063000000    -0.355000000
O     1.937000000    -3.128000000    -2.628000000
H     1.334000000    -2.950000000    -1.906000000
H     1.468000000    -3.750000000    -3.184000000
O    -4.185000000    -2.092000000    -1.288000000
H    -3.512000000    -2.708000000    -0.998000000
H    -4.124000000    -2.105000000    -2.244000000
O     4.539000000     3.899000000    -3.917000000
H     4.468000000     4.670000000    -4.479000000
H     3.747000000     3.920000000    -3.380000000
O    -0.793000000    -2.151000000     6.225000000
H    -1.078000000    -2.268000000     5.319000000
H    -1.247000000    -1.362000000     6.519000000
O    -1.394000000    -1.929000000     3.628000000
H    -1.216000000    -2.574000000     2.944000000
H    -2.311000000    -1.689000000     3.498000000
O     4.339000000    -3.184000000    -1.533000000
H     3.462000000    -3.191000000    -1.916000000
H     4.823000000    -2.543000000    -2.053000000
O    -4.504000000     3.454000000    -0.249000000
H    -3.855000000     4.140000000    -0.403000000
H    -4.460000000     2.902000000    -1.030000000
O    -0.730000000     2.764000000     1.573000000
H    -0.303000000     1.927000000     1.394000000
H    -0.278000000     3.103000000     2.346000000
O    -2.096000000     4.340000000     3.773000000
H    -3.031000000     4.146000000     3.714000000
H    -1.935000000     4.965000000     3.067000000
O    -3.021000000    -5.346000000     1.552000000
H    -3.556000000    -4.553000000     1.505000000
H    -3.305000000    -5.780000000     2.357000000
O    -1.940000000     0.847000000    -4.290000000
H    -1.787000000     1.789000000    -4.362000000
H    -1.459000000     0.469000000    -5.027000000
O    -0.532000000     2.957000000     5.359000000
H    -1.235000000     3.327000000     4.824000000
H     0.206000000     2.869000000     4.756000000
O     8.324000000    -0.890000000    -1.557000000
H     7.421000000    -0.946000000    -1.872000000
H     8.245000000    -0.884000000    -0.603000000
O     4.908000000     0.828000000    -4.421000000
H     5.099000000     1.745000000    -4.621000000
H     4.207000000     0.866000000    -3.771000000
O    -6.493000000    -3.991000000    -1.008000000
H    -5.904000000    -3.459000000    -0.474000000
H    -6.162000000    -4.885000000    -0.913000000
O     1.152000000    -0.389000000     4.428000000
H     1.593000000    -1.101000000     3.966000000
H     0.230000000    -0.646000000     4.440000000
O     5.421000000     1.743000000     0.432000000
H     6.185000000     1.872000000    -0.130000000
H     4.837000000     1.186000000    -0.082000000
O    -3.884000000    -0.754000000     3.442000000
H    -4.256000000    -0.536000000     4.297000000
H    -3.740000000     0.093000000     3.020000000
O    -4.600000000    -2.949000000     2.159000000
H    -5.014000000    -3.137000000     3.002000000
H    -4.427000000    -2.008000000     2.182000000
O    -0.240000000     4.202000000    -0.838000000
H    -1.070000000     4.094000000    -1.304000000
H    -0.275000000     3.555000000    -0.134000000
O    -3.830000000     1.550000000    -2.442000000
H    -4.440000000     1.152000000    -3.063000000
H    -2.964000000     1.368000000    -2.806000000
O     5.585000000    -0.837000000    -2.365000000
H     4.927000000    -0.388000000    -1.835000000
H     5.516000000    -0.430000000    -3.228000000
O     2.270000000     3.797000000    -2.329000000
H     2.048000000     3.127000000    -2.976000000
H     1.434000000     4.026000000    -1.924000000
O     2.229000000    -1.266000000    -4.413000000
H     2.118000000    -1.976000000    -3.781000000
H     2.681000000    -0.578000000    -3.925000000
O     3.951000000    -0.942000000     5.033000000
H     4.482000000    -0.570000000     4.329000000
H     3.532000000    -1.707000000     4.638000000
O     1.414000000     2.822000000     3.636000000
H     1.516000000     1.870000000     3.651000000
H     2.305000000     3.157000000     3.535000000
O    -7.132000000    -1.149000000     2.465000000
H    -7.626000000    -0.330000000     2.486000000
H    -6.723000000    -1.160000000     1.600000000
O     3.714000000     4.392000000     2.374000000
H     4.615000000     4.088000000     2.485000000
H     3.512000000     4.212000000     1.456000000
O     3.614000000     3.568000000    -0.009000000
H     3.326000000     3.304000000    -0.883000000
H     4.231000000     2.885000000     0.256000000
O     3.891000000    -2.555000000     0.972000000
H     4.163000000    -2.701000000     0.066000000
H     4.615000000    -2.067000000     1.364000000
O     2.175000000     0.891000000     6.913000000
H     2.518000000     0.585000000     6.073000000
H     2.945000000     1.208000000     7.385000000
O     5.356000000     0.877000000    -7.118000000
H     4.824000000     0.289000000    -6.581000000
H     5.113000000     1.755000000    -6.825000000
O    -4.834000000     1.635000000     4.425000000
H    -5.352000000     1.221000000     3.735000000
H    -4.593000000     2.488000000     4.065000000
