158
-3055.71817
C    -0.648000000     0.307000000    -1.338000000
H    -1.117000000     0.372000000    -2.316000000
C    -1.342000000     0.130000000    -0.118000000
H    -2.427000000     0.075000000    -0.157000000
C    -0.674000000    -0.138000000     1.083000000
H    -1.263000000    -0.294000000     1.958000000
C     0.723000000    -0.113000000     1.078000000
H     1.177000000    -0.170000000     2.065000000
C     1.481000000    -0.033000000    -0.131000000
H     2.558000000     0.116000000    -0.165000000
C     0.745000000     0.138000000    -1.341000000
C     1.470000000     0.431000000    -2.664000000
O     0.956000000     0.810000000    -3.777000000
O     2.716000000     0.412000000    -2.656000000
O     1.272000000     1.854000000    -6.751000000
H     1.379000000     1.811000000    -5.801000000
H     1.750000000     1.093000000    -7.081000000
O    -6.308000000    -2.128000000     4.045000000
H    -5.563000000    -1.967000000     3.465000000
H    -6.710000000    -1.267000000     4.163000000
O    -3.474000000    -5.535000000     2.462000000
H    -3.506000000    -6.340000000     1.944000000
H    -2.903000000    -4.951000000     1.963000000
O     5.051000000    -1.271000000    -2.117000000
H     5.322000000    -1.792000000    -2.873000000
H     4.272000000    -0.803000000    -2.415000000
O    -1.406000000    -2.546000000    -1.792000000
H    -1.343000000    -2.175000000    -0.912000000
H    -1.700000000    -1.817000000    -2.338000000
O     0.824000000    -3.270000000    -3.377000000
H     0.701000000    -2.694000000    -4.131000000
H     0.155000000    -2.992000000    -2.752000000
O    -1.834000000     3.041000000    -6.617000000
H    -1.120000000     3.658000000    -6.778000000
H    -2.566000000     3.383000000    -7.129000000
O     3.020000000    -3.363000000    -5.606000000
H     2.377000000    -2.717000000    -5.900000000
H     3.681000000    -2.849000000    -5.143000000
O     1.022000000    -1.404000000    -5.402000000
H     1.168000000    -0.534000000    -5.029000000
H     0.258000000    -1.296000000    -5.968000000
O    -0.509000000    -3.554000000     6.998000000
H    -0.939000000    -4.152000000     7.609000000
H    -1.221000000    -3.213000000     6.456000000
O     1.693000000    -5.580000000     2.213000000
H     1.917000000    -4.707000000     2.534000000
H     1.224000000    -5.989000000     2.940000000
O     6.867000000    -0.039000000     2.471000000
H     7.739000000    -0.330000000     2.206000000
H     6.267000000    -0.607000000     1.987000000
O    -0.444000000    -1.539000000    -7.543000000
H    -0.885000000    -0.691000000    -7.597000000
H     0.323000000    -1.447000000    -8.108000000
O    -5.282000000    -1.001000000    -2.532000000
H    -5.370000000    -0.311000000    -3.189000000
H    -4.993000000    -0.544000000    -1.742000000
O     3.977000000    -3.840000000     0.197000000
H     3.888000000    -3.749000000    -0.752000000
H     4.170000000    -4.768000000     0.331000000
O    -0.015000000     3.463000000    -2.717000000
H     0.150000000     3.343000000    -1.782000000
H     0.344000000     2.677000000    -3.128000000
O     0.916000000    -1.523000000     7.792000000
H     0.965000000    -0.919000000     7.051000000
H     0.348000000    -2.231000000     7.487000000
O     1.140000000     2.469000000     4.916000000
H     1.770000000     2.244000000     4.231000000
H     1.101000000     3.425000000     4.900000000
O    -2.044000000     3.408000000     4.534000000
H    -1.144000000     3.729000000     4.585000000
H    -2.438000000     3.913000000     3.823000000
O     3.930000000    -2.924000000     2.748000000
H     3.231000000    -3.185000000     3.348000000
H     3.818000000    -3.495000000     1.987000000
O     1.934000000    -3.779000000     4.402000000
H     2.081000000    -4.118000000     5.285000000
H     1.293000000    -3.077000000     4.519000000
O     3.325000000    -3.860000000    -2.699000000
H     3.823000000    -3.790000000    -3.514000000
H     2.452000000    -3.537000000    -2.924000000
O    -0.077000000     2.976000000     0.251000000
H     0.864000000     3.054000000     0.405000000
H    -0.278000000     2.062000000     0.452000000
O    -4.914000000     1.789000000     5.377000000
H    -4.107000000     1.636000000     4.886000000
H    -4.853000000     2.701000000     5.661000000
O    -2.079000000    -1.496000000    -4.220000000
H    -2.252000000    -1.980000000    -5.027000000
H    -1.717000000    -0.660000000    -4.515000000
O    -2.452000000    -1.065000000     5.514000000
H    -2.059000000    -0.225000000     5.753000000
H    -3.062000000    -1.255000000     6.227000000
O    -0.530000000    -5.427000000     0.694000000
H    -0.380000000    -5.747000000    -0.196000000
H     0.273000000    -5.648000000     1.166000000
O     3.576000000     2.729000000    -3.666000000
H     4.322000000     2.555000000    -4.239000000
H     3.254000000     1.861000000    -3.422000000
O    -4.010000000     1.955000000    -3.669000000
H    -3.481000000     2.450000000    -3.043000000
H    -3.469000000     1.198000000    -3.893000000
O     7.301000000     0.285000000    -2.488000000
H     8.172000000    -0.109000000    -2.451000000
H     6.703000000    -0.460000000    -2.546000000
O     3.831000000    -0.697000000    -4.801000000
H     3.170000000    -0.724000000    -5.494000000
H     3.327000000    -0.591000000    -3.994000000
O    -3.906000000    -2.037000000     2.488000000
H    -3.391000000    -2.346000000     3.234000000
H    -3.269000000    -1.948000000     1.779000000
O     4.090000000    -0.716000000     5.418000000
H     4.127000000    -1.525000000     4.909000000
H     4.970000000    -0.346000000     5.344000000
O    -2.811000000     3.569000000    -1.936000000
H    -3.143000000     4.466000000    -1.961000000
H    -1.872000000     3.657000000    -2.099000000
O    -1.245000000     1.446000000     6.197000000
H    -1.721000000     2.276000000     6.183000000
H    -0.464000000     1.609000000     5.669000000
O     0.077000000    -1.828000000     4.364000000
H     0.609000000    -1.145000000     4.772000000
H    -0.821000000    -1.616000000     4.618000000
O    -4.820000000     3.176000000     0.229000000
H    -5.566000000     3.730000000     0.001000000
H    -4.238000000     3.234000000    -0.529000000
O     4.703000000     1.790000000    -0.821000000
H     5.488000000     1.272000000    -0.640000000
H     4.207000000     1.261000000    -1.447000000
O     1.634000000     4.418000000    -7.602000000
H     1.481000000     3.490000000    -7.421000000
H     2.044000000     4.429000000    -8.467000000
O     3.473000000     5.310000000    -2.564000000
H     3.170000000     4.474000000    -2.920000000
H     4.418000000     5.306000000    -2.718000000
O     2.798000000     1.947000000     3.013000000
H     2.763000000     2.640000000     2.354000000
H     3.321000000     1.256000000     2.607000000
O     2.488000000     3.063000000     0.606000000
H     2.716000000     3.988000000     0.512000000
H     3.046000000     2.613000000    -0.029000000
O     5.496000000    -1.433000000     0.607000000
H     5.584000000    -1.235000000    -0.326000000
H     4.712000000    -1.978000000     0.663000000
O     1.493000000     0.024000000     5.747000000
H     1.537000000     0.880000000     5.321000000
H     2.371000000    -0.342000000     5.643000000
O    -1.354000000     0.784000000    -5.164000000
H    -0.546000000     0.978000000    -4.688000000
H    -1.600000000     1.616000000    -5.568000000
O     6.126000000     0.485000000    -5.541000000
H     5.300000000     0.090000000    -5.263000000
H     6.065000000     0.520000000    -6.496000000
O    -1.412000000    -2.984000000     1.197000000
H    -1.111000000    -3.866000000     0.978000000
H    -0.618000000    -2.521000000     1.465000000
O    -5.587000000    -0.836000000     0.607000000
H    -4.959000000    -0.922000000     1.324000000
H    -6.088000000    -1.652000000     0.629000000
