158
-3054.46164
C    -0.313000000     0.278000000    -1.394000000
H    -0.252000000     0.393000000    -2.473000000
C     0.986000000     0.435000000    -0.812000000
H     1.807000000     0.888000000    -1.361000000
C     1.116000000     0.166000000     0.570000000
H     2.083000000     0.312000000     1.080000000
C    -0.045000000    -0.246000000     1.262000000
H     0.014000000    -0.500000000     2.318000000
C    -1.240000000    -0.437000000     0.588000000
H    -2.086000000    -0.801000000     1.166000000
C    -1.435000000    -0.176000000    -0.745000000
C    -2.803000000    -0.387000000    -1.415000000
O    -3.674000000    -0.776000000    -0.726000000
O    -2.942000000    -0.199000000    -2.635000000
O    -2.704000000     1.694000000     3.409000000
H    -3.233000000     0.996000000     3.024000000
H    -2.985000000     2.487000000     2.952000000
O     8.000000000    -0.958000000     0.642000000
H     7.274000000    -0.715000000     0.066000000
H     8.385000000    -1.730000000     0.228000000
O    -0.072000000     3.178000000     1.925000000
H    -0.012000000     2.272000000     1.621000000
H     0.787000000     3.359000000     2.307000000
O     2.910000000     2.255000000    -6.242000000
H     3.322000000     1.406000000    -6.077000000
H     2.417000000     2.440000000    -5.442000000
O    -7.168000000     0.490000000     1.102000000
H    -7.823000000    -0.200000000     0.995000000
H    -6.634000000     0.439000000     0.309000000
O    -3.844000000     2.950000000    -2.287000000
H    -3.569000000     3.197000000    -1.404000000
H    -4.555000000     2.323000000    -2.150000000
O     2.697000000     2.781000000     1.891000000
H     2.621000000     3.182000000     1.025000000
H     3.361000000     3.305000000     2.340000000
O     4.592000000     4.364000000    -1.254000000
H     3.662000000     4.579000000    -1.315000000
H     4.973000000     5.087000000    -0.755000000
O    -4.594000000    -3.955000000    -2.242000000
H    -4.665000000    -3.328000000    -2.962000000
H    -3.675000000    -3.912000000    -1.977000000
O     2.764000000    -0.682000000    -5.574000000
H     3.245000000    -1.432000000    -5.224000000
H     1.909000000    -0.724000000    -5.145000000
O     4.423000000     1.722000000    -1.732000000
H     4.776000000     2.612000000    -1.699000000
H     4.947000000     1.234000000    -1.096000000
O     3.418000000    -0.197000000     4.067000000
H     3.889000000    -0.527000000     4.833000000
H     3.635000000    -0.814000000     3.368000000
O    -2.354000000     3.567000000    -4.542000000
H    -2.490000000     4.501000000    -4.696000000
H    -2.946000000     3.354000000    -3.820000000
O    -2.342000000     0.886000000    -4.917000000
H    -2.496000000     0.614000000    -4.013000000
H    -2.506000000     1.829000000    -4.915000000
O     0.219000000     3.161000000     5.782000000
H     0.811000000     2.649000000     5.230000000
H    -0.556000000     2.608000000     5.879000000
O    -2.599000000    -1.725000000    -5.609000000
H    -2.412000000    -0.798000000    -5.461000000
H    -3.384000000    -1.897000000    -5.089000000
O     4.710000000    -4.148000000    -0.882000000
H     4.834000000    -3.316000000    -1.337000000
H     4.810000000    -3.931000000     0.045000000
O    -5.494000000    -3.637000000     2.311000000
H    -5.188000000    -3.077000000     1.598000000
H    -6.167000000    -4.187000000     1.911000000
O     1.888000000     4.795000000    -0.976000000
H     1.300000000     5.227000000    -0.357000000
H     1.325000000     4.189000000    -1.458000000
O    -3.419000000    -4.053000000     3.946000000
H    -3.944000000    -4.585000000     3.348000000
H    -3.913000000    -3.238000000     4.039000000
O     0.815000000    -3.430000000     4.944000000
H     0.382000000    -2.786000000     5.505000000
H     0.555000000    -3.187000000     4.055000000
O     1.690000000     1.853000000     4.213000000
H     1.785000000     2.023000000     3.276000000
H     2.247000000     1.091000000     4.376000000
O     2.510000000    -2.149000000    -2.567000000
H     2.780000000    -2.498000000    -3.417000000
H     3.285000000    -1.694000000    -2.237000000
O     0.496000000    -1.391000000    -4.479000000
H    -0.457000000    -1.335000000    -4.406000000
H     0.765000000    -1.897000000    -3.712000000
O    -0.192000000     3.216000000    -2.470000000
H    -1.036000000     2.786000000    -2.335000000
H    -0.368000000     3.890000000    -3.126000000
O     5.329000000    -1.646000000    -2.243000000
H     5.963000000    -2.196000000    -2.705000000
H     5.813000000    -0.847000000    -2.035000000
O    -3.146000000    -3.098000000     0.569000000
H    -3.192000000    -2.182000000     0.294000000
H    -2.577000000    -3.514000000    -0.079000000
O     1.527000000    -4.573000000     1.472000000
H     1.724000000    -5.492000000     1.656000000
H     0.847000000    -4.342000000     2.104000000
O    -2.196000000     1.828000000     6.059000000
H    -2.373000000     1.874000000     5.119000000
H    -2.461000000     0.943000000     6.309000000
O     0.810000000    -3.777000000    -0.903000000
H     1.247000000    -3.993000000    -0.080000000
H     1.249000000    -2.983000000    -1.207000000
O     6.329000000     1.753000000     2.819000000
H     5.987000000     1.625000000     1.934000000
H     5.758000000     2.419000000     3.202000000
O     3.649000000    -1.897000000     1.766000000
H     4.216000000    -2.365000000     2.380000000
H     2.949000000    -2.517000000     1.566000000
O     4.710000000    -4.606000000     2.099000000
H     5.054000000    -5.480000000     2.283000000
H     3.837000000    -4.605000000     2.494000000
O    -1.916000000    -3.798000000    -1.726000000
H    -1.001000000    -3.841000000    -1.447000000
H    -1.946000000    -4.317000000    -2.530000000
O    -5.858000000    -2.333000000    -0.205000000
H    -5.561000000    -3.017000000    -0.805000000
H    -5.198000000    -1.644000000    -0.280000000
O     0.050000000     1.357000000    -6.184000000
H    -0.806000000     1.230000000    -5.773000000
H     0.614000000     0.706000000    -5.767000000
O    -4.785000000    -1.814000000    -3.699000000
H    -4.173000000    -1.348000000    -3.130000000
H    -5.338000000    -1.127000000    -4.071000000
O     5.699000000     0.773000000    -4.382000000
H     4.980000000     0.735000000    -3.752000000
H     6.491000000     0.741000000    -3.845000000
O    -5.675000000     3.695000000     0.120000000
H    -5.492000000     2.859000000    -0.310000000
H    -6.628000000     3.776000000     0.090000000
O     4.922000000     0.561000000     0.828000000
H     5.056000000    -0.196000000     1.398000000
H     4.009000000     0.490000000     0.547000000
O    -8.487000000    -1.995000000     0.236000000
H    -7.565000000    -2.199000000     0.079000000
H    -8.861000000    -2.812000000     0.567000000
O     0.341000000     4.335000000    -5.917000000
H    -0.221000000     3.603000000    -5.662000000
H     1.111000000     3.920000000    -6.308000000
O     2.224000000     2.556000000    -3.485000000
H     1.530000000     2.932000000    -2.943000000
H     2.952000000     2.419000000    -2.880000000
O    -2.084000000     3.146000000    -0.068000000
H    -1.312000000     2.592000000     0.054000000
H    -2.252000000     3.516000000     0.799000000
O    -5.684000000     1.117000000    -1.655000000
H    -6.249000000     0.730000000    -2.325000000
H    -4.984000000     0.476000000    -1.533000000
O    -6.894000000     0.460000000    -4.011000000
H    -6.685000000     0.492000000    -4.945000000
H    -7.850000000     0.446000000    -3.980000000
O    -0.748000000    -3.285000000     2.677000000
H    -0.906000000    -2.755000000     1.895000000
H    -1.598000000    -3.676000000     2.877000000
O    -1.620000000    -4.448000000    -4.827000000
H    -1.976000000    -3.581000000    -5.020000000
H    -0.891000000    -4.549000000    -5.439000000
