158
-3064.53954
C    -0.530000000     0.377000000    -1.303000000
H    -0.981000000     0.671000000    -2.247000000
C    -1.316000000    -0.065000000    -0.219000000
H    -2.402000000    -0.014000000    -0.221000000
C    -0.696000000    -0.381000000     0.997000000
H    -1.213000000    -0.697000000     1.888000000
C     0.659000000    -0.347000000     0.975000000
H     1.224000000    -0.657000000     1.851000000
C     1.476000000     0.035000000    -0.067000000
H     2.542000000     0.129000000     0.127000000
C     0.851000000     0.437000000    -1.256000000
C     1.590000000     0.962000000    -2.456000000
O     1.049000000     1.419000000    -3.469000000
O     2.790000000     1.156000000    -2.269000000
O     0.505000000     1.656000000    -6.070000000
H     0.606000000     1.617000000    -5.119000000
H     0.081000000     0.829000000    -6.300000000
O    -4.011000000    -4.952000000     3.250000000
H    -3.778000000    -5.806000000     2.887000000
H    -3.172000000    -4.545000000     3.464000000
O     4.830000000    -0.615000000    -2.028000000
H     4.829000000    -0.847000000    -2.956000000
H     4.075000000    -0.036000000    -1.925000000
O    -0.428000000    -2.699000000    -1.015000000
H    -0.365000000    -1.937000000    -0.438000000
H    -1.088000000    -2.453000000    -1.664000000
O     2.085000000    -3.242000000    -2.216000000
H     1.941000000    -3.862000000    -2.931000000
H     1.219000000    -3.120000000    -1.827000000
O    -1.452000000    -1.924000000    -4.936000000
H    -1.823000000    -1.086000000    -5.212000000
H    -0.552000000    -1.906000000    -5.261000000
O     5.613000000     2.230000000    -5.398000000
H     5.534000000     1.676000000    -4.621000000
H     4.717000000     2.508000000    -5.585000000
O    -4.105000000     2.084000000     2.474000000
H    -4.154000000     1.891000000     1.538000000
H    -4.512000000     1.328000000     2.897000000
O     4.810000000    -0.234000000     2.403000000
H     5.353000000    -0.887000000     2.844000000
H     4.329000000    -0.729000000     1.740000000
O    -6.086000000    -1.802000000    -0.402000000
H    -5.490000000    -1.322000000    -0.978000000
H    -5.539000000    -2.475000000     0.002000000
O     0.006000000    -5.751000000     1.583000000
H    -0.657000000    -5.062000000     1.620000000
H     0.805000000    -5.333000000     1.902000000
O     2.420000000    -3.394000000     2.361000000
H     2.697000000    -2.917000000     1.579000000
H     2.738000000    -4.286000000     2.223000000
O    -1.663000000     2.812000000    -3.766000000
H    -1.975000000     3.205000000    -2.951000000
H    -0.723000000     2.690000000    -3.629000000
O    -0.388000000     5.440000000    -5.132000000
H     0.369000000     5.112000000    -4.645000000
H    -1.144000000     5.075000000    -4.673000000
O     0.079000000     3.763000000     3.630000000
H    -0.064000000     3.926000000     2.697000000
H     0.977000000     3.435000000     3.681000000
O    -3.061000000     3.810000000     4.541000000
H    -2.297000000     3.252000000     4.687000000
H    -3.435000000     3.494000000     3.719000000
O    -4.352000000    -3.362000000     0.709000000
H    -4.499000000    -3.999000000     1.407000000
H    -3.406000000    -3.221000000     0.708000000
O     3.245000000     3.064000000    -6.328000000
H     3.400000000     3.418000000    -7.204000000
H     2.445000000     2.545000000    -6.417000000
O     3.314000000    -2.177000000     4.608000000
H     2.567000000    -2.377000000     5.172000000
H     3.045000000    -2.475000000     3.739000000
O     1.159000000    -2.771000000     6.411000000
H     0.805000000    -3.132000000     7.223000000
H     0.416000000    -2.324000000     6.004000000
O     3.764000000    -2.402000000     0.045000000
H     3.174000000    -2.594000000    -0.684000000
H     4.565000000    -2.085000000    -0.372000000
O    -1.659000000     5.047000000     0.181000000
H    -1.968000000     4.478000000    -0.525000000
H    -1.007000000     4.521000000     0.644000000
O     5.983000000     2.690000000     2.314000000
H     5.927000000     2.268000000     3.172000000
H     5.202000000     2.391000000     1.849000000
O     0.187000000     2.901000000     0.738000000
H     1.094000000     3.193000000     0.826000000
H     0.254000000     2.009000000     0.398000000
O    -3.652000000     1.307000000     6.299000000
H    -3.677000000     2.253000000     6.159000000
H    -3.476000000     1.208000000     7.235000000
O    -2.596000000    -2.551000000    -2.784000000
H    -3.141000000    -3.329000000    -2.905000000
H    -2.142000000    -2.444000000    -3.620000000
O    -1.624000000    -4.000000000     3.081000000
H    -1.293000000    -3.105000000     3.156000000
H    -1.176000000    -4.481000000     3.777000000
O     1.927000000     4.399000000    -3.988000000
H     2.279000000     4.136000000    -4.838000000
H     2.094000000     3.649000000    -3.417000000
O    -4.621000000    -0.627000000    -2.412000000
H    -5.118000000    -0.478000000    -3.216000000
H    -3.826000000    -1.075000000    -2.701000000
O    -0.480000000     3.144000000     6.380000000
H    -0.050000000     3.998000000     6.322000000
H     0.240000000     2.518000000     6.453000000
O     6.343000000     1.389000000    -2.643000000
H     7.242000000     1.550000000    -2.354000000
H     6.128000000     0.526000000    -2.289000000
O     3.578000000     0.036000000    -4.565000000
H     2.886000000     0.254000000    -5.189000000
H     3.316000000     0.470000000    -3.754000000
O    -4.551000000    -0.493000000     3.613000000
H    -4.125000000    -0.189000000     4.415000000
H    -3.953000000    -1.153000000     3.260000000
O     3.650000000     0.374000000     5.026000000
H     3.808000000    -0.567000000     5.103000000
H     4.481000000     0.732000000     4.716000000
O    -1.128000000     0.947000000     4.628000000
H    -1.853000000     1.190000000     5.203000000
H    -0.923000000     1.750000000     4.149000000
O    -1.057000000    -1.726000000     4.709000000
H    -1.162000000    -0.803000000     4.478000000
H    -1.883000000    -1.964000000     5.130000000
O    -4.913000000     1.198000000    -0.113000000
H    -5.743000000     1.597000000    -0.371000000
H    -4.742000000     0.543000000    -0.790000000
O     4.491000000     2.920000000    -1.260000000
H     3.826000000     2.301000000    -1.562000000
H     5.317000000     2.560000000    -1.582000000
O    -3.071000000     3.579000000    -1.461000000
H    -3.467000000     2.718000000    -1.327000000
H    -3.790000000     4.197000000    -1.324000000
O    -1.423000000     3.269000000    -7.416000000
H    -0.556000000     3.226000000    -7.012000000
H    -1.817000000     2.417000000    -7.228000000
O     0.453000000    -1.187000000    -6.949000000
H     0.882000000    -1.999000000    -7.220000000
H     0.576000000    -0.592000000    -7.688000000
O     2.352000000     2.652000000     3.554000000
H     2.625000000     2.934000000     2.681000000
H     2.831000000     1.837000000     3.702000000
O     2.741000000     3.768000000     1.002000000
H     2.425000000     4.672000000     1.004000000
H     3.251000000     3.694000000     0.196000000
O     0.984000000     0.757000000     6.412000000
H     0.336000000     0.633000000     5.718000000
H     1.777000000     0.338000000     6.077000000
O    -2.443000000     0.611000000    -5.479000000
H    -2.165000000     1.301000000    -4.877000000
H    -3.365000000     0.803000000    -5.654000000
O     5.054000000    -0.612000000    -6.871000000
H     4.489000000    -0.530000000    -6.103000000
H     5.935000000    -0.714000000    -6.511000000
O    -3.400000000    -3.000000000     5.470000000
H    -3.464000000    -3.602000000     4.728000000
H    -3.742000000    -3.499000000     6.212000000
O    -7.324000000    -1.259000000     3.696000000
H    -6.426000000    -1.103000000     3.403000000
H    -7.239000000    -1.479000000     4.624000000
