158
-3040.44088
C    -1.415000000     0.396000000     0.396000000
H    -2.458000000     0.530000000     0.670000000
C    -0.552000000    -0.526000000     1.048000000
H    -1.032000000    -1.141000000     1.804000000
C     0.772000000    -0.702000000     0.669000000
H     1.317000000    -1.456000000     1.258000000
C     1.332000000     0.126000000    -0.285000000
H     2.363000000     0.009000000    -0.608000000
C     0.517000000     0.912000000    -1.056000000
H     0.904000000     1.423000000    -1.934000000
C    -0.902000000     1.069000000    -0.727000000
C    -1.826000000     1.870000000    -1.599000000
O    -3.057000000     1.791000000    -1.488000000
O    -1.332000000     2.604000000    -2.393000000
O    -0.398000000     4.897000000    -1.406000000
H    -0.746000000     4.120000000    -1.844000000
H     0.544000000     4.739000000    -1.350000000
O    -0.179000000     7.531000000    -1.928000000
H     0.322000000     7.549000000    -2.743000000
H    -0.329000000     6.600000000    -1.760000000
O    -0.944000000    -0.761000000    -4.919000000
H    -1.326000000    -1.126000000    -4.122000000
H    -1.331000000     0.112000000    -4.993000000
O     1.870000000    -6.883000000    -0.156000000
H     2.204000000    -6.187000000     0.410000000
H     2.440000000    -6.861000000    -0.925000000
O     4.434000000    -2.068000000    -3.072000000
H     4.853000000    -2.734000000    -2.526000000
H     3.496000000    -2.220000000    -2.957000000
O     3.164000000    -3.997000000     0.618000000
H     3.401000000    -3.348000000     1.280000000
H     3.096000000    -3.497000000    -0.195000000
O    -3.572000000    -2.400000000    -1.729000000
H    -4.287000000    -3.004000000    -1.930000000
H    -4.006000000    -1.627000000    -1.368000000
O     1.499000000    -0.105000000    -4.158000000
H     1.722000000    -0.697000000    -3.440000000
H     0.558000000    -0.227000000    -4.287000000
O    -3.393000000     3.912000000    -3.733000000
H    -2.730000000     3.245000000    -3.556000000
H    -3.565000000     4.311000000    -2.880000000
O     5.957000000    -2.464000000     3.877000000
H     6.224000000    -3.383000000     3.888000000
H     6.678000000    -2.000000000     4.303000000
O     4.265000000     1.696000000     0.473000000
H     4.306000000     0.904000000     1.009000000
H     4.067000000     2.396000000     1.094000000
O     4.588000000    -6.271000000     1.075000000
H     5.415000000    -6.086000000     0.630000000
H     4.042000000    -5.506000000     0.893000000
O    -3.630000000    -2.488000000     2.161000000
H    -3.656000000    -3.032000000     2.948000000
H    -3.723000000    -3.108000000     1.438000000
O     0.488000000    -3.663000000    -0.524000000
H     0.762000000    -4.565000000    -0.354000000
H    -0.004000000    -3.411000000     0.257000000
O     6.159000000     0.312000000    -2.130000000
H     5.235000000     0.214000000    -2.357000000
H     6.350000000    -0.442000000    -1.572000000
O    -4.729000000     3.804000000    -1.150000000
H    -4.239000000     2.999000000    -1.316000000
H    -4.171000000     4.305000000    -0.554000000
O    -4.991000000    -0.087000000    -1.602000000
H    -5.100000000    -0.192000000    -2.548000000
H    -4.232000000     0.489000000    -1.512000000
O    -1.291000000    -5.804000000     1.232000000
H    -0.625000000    -5.344000000     1.743000000
H    -1.110000000    -6.732000000     1.381000000
O     2.229000000     4.765000000    -1.774000000
H     2.074000000     5.329000000    -2.532000000
H     2.972000000     4.218000000    -2.030000000
O    -3.250000000    -0.484000000     6.155000000
H    -3.238000000    -0.278000000     5.220000000
H    -3.937000000    -1.144000000     6.246000000
O    -5.190000000     0.974000000     2.443000000
H    -5.798000000     0.562000000     1.829000000
H    -5.743000000     1.268000000     3.167000000
O    -0.426000000    -1.897000000     4.127000000
H     0.411000000    -2.253000000     4.424000000
H    -0.366000000    -0.959000000     4.309000000
O     7.216000000     2.006000000     0.458000000
H     7.061000000     2.723000000    -0.157000000
H     6.353000000     1.614000000     0.592000000
O     0.762000000     2.382000000     1.656000000
H     1.088000000     1.736000000     1.029000000
H     1.532000000     2.904000000     1.884000000
O     0.498000000    -4.013000000     2.363000000
H     1.442000000    -3.996000000     2.520000000
H     0.135000000    -3.424000000     3.025000000
O    -5.370000000     4.087000000     2.111000000
H    -4.636000000     3.691000000     1.641000000
H    -6.114000000     3.517000000     1.916000000
O    -6.817000000    -0.223000000     0.672000000
H    -7.753000000    -0.199000000     0.471000000
H    -6.393000000     0.092000000    -0.126000000
O     2.310000000    -5.399000000     4.915000000
H     3.099000000    -5.293000000     5.447000000
H     2.593000000    -5.931000000     4.171000000
O    -6.686000000     4.153000000    -4.122000000
H    -7.416000000     4.423000000    -3.565000000
H    -5.906000000     4.333000000    -3.598000000
O    -0.661000000     4.387000000    -6.404000000
H    -0.767000000     4.962000000    -7.162000000
H     0.210000000     4.595000000    -6.065000000
O    -0.891000000     2.024000000    -4.970000000
H    -0.819000000     2.923000000    -5.289000000
H    -0.805000000     2.099000000    -4.020000000
O    -2.780000000     4.817000000     0.461000000
H    -2.031000000     5.221000000     0.024000000
H    -2.398000000     4.122000000     0.997000000
O     3.632000000    -2.641000000     2.753000000
H     3.204000000    -2.354000000     3.560000000
H     4.563000000    -2.674000000     2.974000000
O    -2.472000000    -3.561000000     5.371000000
H    -2.190000000    -4.385000000     4.975000000
H    -1.839000000    -2.915000000     5.057000000
O     2.087000000     1.183000000     4.127000000
H     1.863000000     1.350000000     3.212000000
H     1.242000000     1.088000000     4.567000000
O     5.688000000     0.057000000     2.382000000
H     5.232000000    -0.602000000     2.905000000
H     5.993000000     0.701000000     3.021000000
O    -2.781000000     0.159000000     3.313000000
H    -2.654000000    -0.507000000     2.638000000
H    -3.709000000     0.386000000     3.254000000
O     2.013000000    -2.488000000     5.033000000
H     2.094000000    -3.359000000     5.422000000
H     2.492000000    -1.914000000     5.630000000
O    -3.874000000     1.017000000    -4.668000000
H    -3.440000000     1.555000000    -5.330000000
H    -3.874000000     1.561000000    -3.879000000
O    -1.872000000     2.760000000     2.103000000
H    -0.978000000     2.439000000     1.982000000
H    -2.310000000     2.067000000     2.597000000
O     1.788000000    -2.566000000    -2.779000000
H     1.622000000    -3.140000000    -3.527000000
H     1.200000000    -2.887000000    -2.095000000
O    -3.478000000     3.260000000    -6.611000000
H    -3.854000000     3.462000000    -5.754000000
H    -2.727000000     3.849000000    -6.688000000
O    -1.088000000    -1.712000000    -2.523000000
H    -1.994000000    -1.941000000    -2.316000000
H    -0.607000000    -1.881000000    -1.712000000
O    -0.445000000     1.068000000     4.806000000
H    -1.337000000     0.942000000     4.482000000
H    -0.526000000     1.009000000     5.758000000
O     3.141000000     1.908000000    -4.820000000
H     3.489000000     2.354000000    -4.048000000
H     2.514000000     1.276000000    -4.469000000
O    -7.664000000     1.817000000    -1.495000000
H    -6.781000000     2.167000000    -1.607000000
H    -7.837000000     1.337000000    -2.305000000
O    -3.549000000    -4.388000000     0.487000000
H    -3.180000000    -4.097000000    -0.346000000
H    -2.845000000    -4.886000000     0.901000000
O     4.140000000     2.682000000    -2.192000000
H     5.074000000     2.886000000    -2.142000000
H     3.943000000     2.258000000    -1.357000000
