158
-3064.74556
C    -0.245000000    -0.021000000    -1.504000000
H    -0.630000000     0.073000000    -2.517000000
C    -1.177000000    -0.248000000    -0.476000000
H    -2.143000000    -0.469000000    -0.922000000
C    -0.820000000    -0.356000000     0.872000000
H    -1.566000000    -0.662000000     1.594000000
C     0.502000000     0.020000000     1.241000000
H     0.765000000     0.074000000     2.294000000
C     1.471000000     0.272000000     0.215000000
H     2.505000000     0.523000000     0.436000000
C     1.069000000     0.238000000    -1.151000000
C     2.059000000     0.553000000    -2.225000000
O     1.915000000     0.118000000    -3.372000000
O     2.872000000     1.437000000    -1.933000000
O     1.018000000     1.862000000    -5.033000000
H     1.446000000     1.325000000    -4.366000000
H     1.047000000     1.327000000    -5.826000000
O     5.754000000    -1.423000000    -5.665000000
H     6.268000000    -0.765000000    -5.197000000
H     4.845000000    -1.154000000    -5.535000000
O    -0.633000000    -5.184000000     1.704000000
H    -1.469000000    -5.226000000     2.168000000
H    -0.837000000    -5.480000000     0.816000000
O     0.634000000    -3.126000000     0.204000000
H     0.631000000    -2.186000000     0.386000000
H     0.338000000    -3.529000000     1.020000000
O     3.549000000    -0.130000000     6.601000000
H     3.033000000    -0.388000000     5.837000000
H     4.020000000     0.654000000     6.319000000
O     2.202000000    -3.608000000    -3.727000000
H     1.634000000    -2.968000000    -4.156000000
H     3.067000000    -3.452000000    -4.105000000
O     1.364000000     1.150000000    -7.629000000
H     1.589000000     1.919000000    -8.153000000
H     1.727000000     0.412000000    -8.118000000
O     5.115000000     0.406000000     1.206000000
H     4.959000000     1.294000000     0.887000000
H     5.625000000     0.526000000     2.007000000
O    -4.080000000    -1.967000000    -2.710000000
H    -4.104000000    -1.322000000    -3.417000000
H    -3.155000000    -2.202000000    -2.631000000
O     2.059000000    -2.674000000     2.655000000
H     2.896000000    -2.687000000     2.190000000
H     1.683000000    -3.539000000     2.493000000
O    -1.869000000     1.868000000    -5.211000000
H    -2.113000000     2.614000000    -4.664000000
H    -0.920000000     1.796000000    -5.108000000
O    -2.027000000     2.082000000     3.098000000
H    -1.649000000     2.095000000     2.219000000
H    -2.930000000     2.377000000     2.975000000
O    -5.131000000    -0.795000000     0.825000000
H    -5.825000000    -0.405000000     0.293000000
H    -4.762000000    -1.482000000     0.270000000
O    -4.984000000    -3.364000000    -0.465000000
H    -5.523000000    -4.120000000    -0.697000000
H    -4.687000000    -3.014000000    -1.305000000
O     3.202000000     3.400000000    -3.871000000
H     2.445000000     3.098000000    -4.372000000
H     3.198000000     2.860000000    -3.081000000
O     0.347000000    -2.373000000     6.583000000
H     0.898000000    -3.148000000     6.472000000
H    -0.460000000    -2.583000000     6.113000000
O    -2.616000000    -3.578000000     6.959000000
H    -2.793000000    -2.952000000     7.661000000
H    -2.787000000    -3.090000000     6.154000000
O     3.153000000    -2.996000000    -1.162000000
H     2.982000000    -3.361000000    -2.030000000
H     2.331000000    -3.113000000    -0.686000000
O    -3.223000000     3.829000000     0.881000000
H    -2.629000000     3.105000000     0.682000000
H    -3.562000000     4.102000000     0.028000000
O    -0.937000000     2.523000000     0.584000000
H    -0.273000000     3.132000000     0.260000000
H    -0.634000000     1.662000000     0.294000000
O    -1.296000000    -2.690000000    -2.394000000
H    -1.143000000    -3.509000000    -2.866000000
H    -0.679000000    -2.716000000    -1.663000000
O    -1.303000000     4.371000000     4.563000000
H    -1.480000000     3.546000000     4.111000000
H    -1.475000000     5.046000000     3.906000000
O    -2.976000000    -5.653000000     3.385000000
H    -3.329000000    -5.737000000     4.271000000
H    -3.282000000    -4.797000000     3.086000000
O    -3.696000000    -0.132000000    -4.726000000
H    -2.990000000     0.512000000    -4.781000000
H    -4.331000000     0.153000000    -5.384000000
O    -1.172000000     2.324000000     6.290000000
H    -1.715000000     3.111000000     6.257000000
H    -0.458000000     2.499000000     5.677000000
O    -6.459000000    -1.139000000    -2.119000000
H    -5.640000000    -1.564000000    -2.373000000
H    -6.853000000    -1.738000000    -1.485000000
O     7.547000000    -0.119000000    -1.008000000
H     6.718000000     0.336000000    -1.154000000
H     7.915000000     0.297000000    -0.229000000
O     3.226000000    -0.675000000    -5.591000000
H     2.448000000    -0.948000000    -6.076000000
H     2.907000000    -0.494000000    -4.707000000
O    -4.529000000    -3.620000000     2.271000000
H    -4.473000000    -2.697000000     2.517000000
H    -4.766000000    -3.607000000     1.344000000
O     2.011000000    -1.008000000     4.703000000
H     1.115000000    -1.249000000     4.938000000
H     2.168000000    -1.450000000     3.869000000
O     4.987000000     2.873000000    -0.140000000
H     5.168000000     2.297000000    -0.884000000
H     4.051000000     3.059000000    -0.204000000
O    -2.352000000     0.185000000     5.217000000
H    -1.790000000     0.568000000     5.889000000
H    -2.248000000     0.761000000     4.460000000
O    -3.817000000    -2.393000000     4.555000000
H    -3.430000000    -1.523000000     4.647000000
H    -4.714000000    -2.291000000     4.874000000
O    -4.919000000     3.543000000     2.861000000
H    -4.471000000     3.399000000     2.028000000
H    -5.313000000     4.410000000     2.774000000
O    -5.032000000     1.715000000    -2.533000000
H    -5.865000000     1.537000000    -2.097000000
H    -4.911000000     0.976000000    -3.129000000
O     5.600000000     1.448000000    -2.206000000
H     4.820000000     0.958000000    -2.463000000
H     6.081000000     1.578000000    -3.023000000
O    -2.549000000     3.407000000    -2.953000000
H    -3.231000000     2.763000000    -2.763000000
H    -2.980000000     4.253000000    -2.837000000
O     0.095000000     4.289000000    -2.268000000
H     0.290000000     4.917000000    -2.964000000
H    -0.703000000     3.848000000    -2.561000000
O     0.335000000    -1.525000000    -4.741000000
H    -0.582000000    -1.449000000    -4.479000000
H     0.796000000    -0.901000000    -4.180000000
O     5.481000000     0.040000000     3.885000000
H     4.659000000    -0.293000000     3.524000000
H     5.986000000    -0.746000000     4.094000000
O     0.981000000     2.702000000     4.124000000
H     1.436000000     2.968000000     3.325000000
H     1.671000000     2.647000000     4.786000000
O    -5.639000000     0.434000000     3.285000000
H    -6.169000000     1.076000000     2.812000000
H    -5.275000000    -0.127000000     2.601000000
O     4.516000000     4.857000000    -2.097000000
H     4.683000000     4.120000000    -1.509000000
H     4.015000000     4.479000000    -2.819000000
O     2.983000000     4.447000000     2.493000000
H     3.932000000     4.509000000     2.601000000
H     2.861000000     4.232000000     1.568000000
O     2.274000000     3.899000000    -0.175000000
H     1.536000000     4.499000000    -0.069000000
H     2.172000000     3.548000000    -1.060000000
O     4.552000000    -2.533000000     1.099000000
H     4.132000000    -2.698000000     0.255000000
H     4.894000000    -1.642000000     1.026000000
O     4.743000000     1.254000000    -7.164000000
H     4.057000000     0.815000000    -6.661000000
H     5.058000000     1.949000000    -6.586000000
O    -5.343000000     2.570000000     5.357000000
H    -5.363000000     1.865000000     4.709000000
H    -5.035000000     3.334000000     4.870000000
