158
-3022.61821
C    -0.602000000     0.769000000    -1.019000000
H    -1.099000000     1.516000000    -1.633000000
C    -0.997000000     0.737000000     0.288000000
H    -1.841000000     1.348000000     0.597000000
C    -0.383000000    -0.124000000     1.199000000
H    -0.697000000    -0.082000000     2.221000000
C     0.708000000    -0.873000000     0.736000000
H     1.361000000    -1.463000000     1.374000000
C     1.032000000    -0.884000000    -0.623000000
H     1.854000000    -1.510000000    -0.964000000
C     0.362000000    -0.093000000    -1.573000000
C     0.876000000     0.089000000    -2.977000000
O     0.434000000     1.016000000    -3.599000000
O     1.774000000    -0.584000000    -3.517000000
O     1.218000000     1.097000000     5.808000000
H     0.952000000     1.903000000     6.250000000
H     0.396000000     0.638000000     5.632000000
O     3.968000000    -1.694000000    -5.600000000
H     3.964000000    -1.391000000    -4.692000000
H     3.046000000    -1.852000000    -5.804000000
O     4.667000000    -0.872000000    -2.593000000
H     5.505000000    -1.124000000    -2.980000000
H     4.283000000    -1.697000000    -2.295000000
O     3.537000000    -3.578000000    -1.418000000
H     4.459000000    -3.630000000    -1.670000000
H     3.549000000    -3.610000000    -0.461000000
O     1.395000000    -5.377000000     1.457000000
H     0.458000000    -5.314000000     1.271000000
H     1.439000000    -5.742000000     2.341000000
O     2.584000000     4.665000000    -1.141000000
H     1.653000000     4.485000000    -1.014000000
H     2.683000000     4.756000000    -2.089000000
O     1.440000000    -3.309000000    -3.415000000
H     1.634000000    -2.393000000    -3.214000000
H     1.901000000    -3.805000000    -2.738000000
O     1.422000000    -3.779000000    -6.253000000
H     1.539000000    -3.578000000    -5.325000000
H     0.809000000    -3.114000000    -6.567000000
O     1.680000000     3.089000000     3.790000000
H     1.932000000     2.690000000     2.956000000
H     1.765000000     2.381000000     4.429000000
O    -2.239000000    -2.489000000     2.341000000
H    -1.387000000    -2.506000000     1.905000000
H    -2.031000000    -2.524000000     3.275000000
O    -2.504000000    -2.303000000    -1.710000000
H    -3.202000000    -2.224000000    -2.362000000
H    -2.527000000    -1.474000000    -1.234000000
O    -3.695000000    -1.455000000    -4.171000000
H    -2.970000000    -0.855000000    -4.345000000
H    -4.342000000    -1.251000000    -4.847000000
O    -4.771000000     0.204000000    -1.098000000
H    -5.724000000     0.127000000    -1.065000000
H    -4.586000000     0.502000000    -1.989000000
O    -2.832000000     4.479000000    -0.465000000
H    -2.977000000     5.420000000    -0.556000000
H    -3.531000000     4.184000000     0.119000000
O     3.306000000    -3.551000000     1.143000000
H     2.455000000    -3.988000000     1.113000000
H     3.891000000    -4.194000000     1.542000000
O    -1.886000000     3.470000000    -6.022000000
H    -1.437000000     3.439000000    -5.177000000
H    -1.929000000     4.402000000    -6.236000000
O    -5.048000000     1.425000000    -3.503000000
H    -4.801000000     2.317000000    -3.748000000
H    -5.941000000     1.325000000    -3.833000000
O     6.609000000    -2.209000000     3.682000000
H     5.774000000    -1.848000000     3.385000000
H     6.446000000    -3.148000000     3.773000000
O    -0.391000000    -1.975000000    -7.959000000
H    -1.020000000    -1.433000000    -8.435000000
H     0.230000000    -1.349000000    -7.586000000
O     1.798000000     4.503000000    -4.206000000
H     1.980000000     3.633000000    -4.562000000
H     0.884000000     4.460000000    -3.925000000
O    -1.525000000     0.646000000     5.010000000
H    -2.301000000     0.282000000     4.585000000
H    -1.714000000     1.581000000     5.095000000
O    -3.829000000    -2.807000000     5.598000000
H    -4.762000000    -2.704000000     5.410000000
H    -3.803000000    -3.320000000     6.405000000
O    -0.561000000    -4.246000000    -1.854000000
H    -1.168000000    -3.506000000    -1.821000000
H     0.087000000    -3.995000000    -2.513000000
O    -2.328000000     3.234000000     5.664000000
H    -3.097000000     3.238000000     5.095000000
H    -1.644000000     3.659000000     5.147000000
O     2.406000000     1.599000000     1.425000000
H     2.940000000     1.330000000     0.677000000
H     1.588000000     1.112000000     1.322000000
O    -4.756000000     1.347000000     1.576000000
H    -5.063000000     2.245000000     1.457000000
H    -4.582000000     1.034000000     0.688000000
O    -1.308000000    -2.177000000     5.022000000
H    -2.111000000    -2.561000000     5.374000000
H    -1.467000000    -1.233000000     5.039000000
O     5.827000000     2.032000000    -1.919000000
H     6.532000000     1.419000000    -2.128000000
H     5.264000000     2.023000000    -2.693000000
O     1.428000000     3.822000000    -7.248000000
H     2.196000000     3.725000000    -7.812000000
H     1.468000000     3.069000000    -6.658000000
O     1.418000000    -0.494000000    -6.403000000
H     1.613000000    -0.806000000    -5.519000000
H     1.059000000     0.384000000    -6.274000000
O    -1.810000000     2.194000000    -8.406000000
H    -2.202000000     2.828000000    -9.006000000
H    -1.822000000     2.630000000    -7.554000000
O     4.705000000    -0.993000000     2.250000000
H     4.402000000    -0.126000000     1.980000000
H     4.249000000    -1.598000000     1.665000000
O     3.650000000    -0.495000000     5.492000000
H     2.956000000     0.023000000     5.900000000
H     3.316000000    -0.697000000     4.618000000
O    -0.807000000     4.696000000     3.952000000
H    -0.456000000     5.531000000     3.641000000
H    -0.122000000     4.059000000     3.752000000
O    -4.042000000     3.848000000    -3.672000000
H    -4.700000000     4.208000000    -3.077000000
H    -3.216000000     3.936000000    -3.196000000
O    -4.824000000     0.955000000     5.875000000
H    -4.674000000     1.783000000     5.418000000
H    -4.650000000     0.283000000     5.216000000
O    -3.817000000    -4.783000000     1.453000000
H    -4.060000000    -5.037000000     2.344000000
H    -3.520000000    -3.877000000     1.534000000
O    -4.999000000     4.104000000     1.065000000
H    -5.681000000     3.735000000     0.503000000
H    -5.210000000     5.036000000     1.116000000
O     4.037000000     0.655000000    -0.421000000
H     3.918000000     0.157000000    -1.229000000
H     4.769000000     1.244000000    -0.608000000
O    -1.935000000     0.533000000    -4.556000000
H    -2.345000000     1.345000000    -4.259000000
H    -1.009000000     0.638000000    -4.337000000
O     2.237000000     2.155000000    -5.259000000
H     3.185000000     2.047000000    -5.183000000
H     1.881000000     1.694000000    -4.499000000
O    -0.725000000     3.434000000    -3.356000000
H    -0.309000000     2.615000000    -3.626000000
H    -0.287000000     3.667000000    -2.537000000
O    -0.015000000     4.176000000    -0.319000000
H     0.081000000     3.497000000     0.348000000
H    -0.916000000     4.483000000    -0.221000000
O     0.016000000    -4.755000000     5.257000000
H    -0.651000000    -5.208000000     5.773000000
H    -0.391000000    -3.921000000     5.021000000
O     4.783000000     2.049000000    -5.241000000
H     5.120000000     2.929000000    -5.411000000
H     5.563000000     1.527000000    -5.052000000
O    -2.577000000    -1.238000000     7.977000000
H    -3.181000000    -1.564000000     7.309000000
H    -1.928000000    -0.734000000     7.487000000
O     3.436000000    -0.974000000    -8.870000000
H     3.647000000    -1.898000000    -8.739000000
H     3.349000000    -0.621000000    -7.984000000
O    -3.668000000    -0.243000000     3.486000000
H    -4.210000000     0.387000000     3.012000000
H    -3.562000000    -0.975000000     2.877000000
