158
-3032.36821
C    -0.430000000     0.699000000    -1.167000000
H    -0.652000000     1.085000000    -2.159000000
C     0.861000000     0.342000000    -0.829000000
H     1.725000000     0.553000000    -1.454000000
C     1.144000000    -0.327000000     0.358000000
H     2.112000000    -0.661000000     0.604000000
C     0.077000000    -0.565000000     1.200000000
H     0.424000000    -1.060000000     2.103000000
C    -1.215000000    -0.215000000     0.868000000
H    -2.081000000    -0.411000000     1.496000000
C    -1.489000000     0.377000000    -0.354000000
C    -2.952000000     0.796000000    -0.727000000
O    -3.907000000     0.243000000    -0.262000000
O    -3.050000000     1.632000000    -1.608000000
O    -2.428000000     3.142000000     3.333000000
H    -1.588000000     3.050000000     2.883000000
H    -3.079000000     2.878000000     2.682000000
O     3.679000000    -2.058000000     4.794000000
H     3.501000000    -1.423000000     5.487000000
H     4.632000000    -2.155000000     4.797000000
O     0.663000000    -2.249000000     7.052000000
H     0.085000000    -1.822000000     6.419000000
H     0.328000000    -3.143000000     7.116000000
O     0.648000000    -3.819000000    -3.750000000
H     0.591000000    -3.656000000    -2.809000000
H     0.038000000    -3.193000000    -4.140000000
O    -0.110000000     2.498000000     1.905000000
H    -0.046000000     1.581000000     1.639000000
H     0.798000000     2.776000000     2.028000000
O    -0.037000000     3.721000000    -5.680000000
H    -0.687000000     3.085000000    -5.976000000
H     0.336000000     3.333000000    -4.889000000
O    -3.203000000    -4.063000000     0.474000000
H    -3.258000000    -5.000000000     0.661000000
H    -3.209000000    -4.008000000    -0.481000000
O     2.549000000    -4.935000000     5.125000000
H     1.920000000    -4.897000000     4.404000000
H     2.933000000    -4.059000000     5.154000000
O    -6.435000000     0.791000000    -0.607000000
H    -6.815000000    -0.085000000    -0.684000000
H    -5.500000000     0.635000000    -0.477000000
O    -2.469000000     5.766000000    -2.815000000
H    -2.205000000     5.309000000    -2.016000000
H    -3.058000000     5.154000000    -3.257000000
O    -8.626000000     2.623000000    -0.587000000
H    -7.862000000     2.051000000    -0.663000000
H    -8.584000000     3.183000000    -1.361000000
O    -4.470000000    -2.086000000    -4.578000000
H    -5.049000000    -2.625000000    -4.039000000
H    -4.697000000    -1.185000000    -4.347000000
O     2.746000000     3.890000000     1.748000000
H     3.351000000     3.653000000     1.044000000
H     2.500000000     4.795000000     1.556000000
O    -2.856000000    -4.023000000    -2.148000000
H    -2.338000000    -3.390000000    -2.646000000
H    -2.620000000    -4.872000000    -2.522000000
O     4.144000000     2.345000000    -3.533000000
H     4.418000000     3.207000000    -3.847000000
H     4.875000000     2.045000000    -2.992000000
O     4.524000000     0.732000000     3.252000000
H     5.212000000     1.091000000     2.691000000
H     4.182000000    -0.016000000     2.762000000
O    -1.963000000     1.959000000    -6.248000000
H    -2.655000000     1.743000000    -6.873000000
H    -2.370000000     1.840000000    -5.390000000
O    -2.668000000     0.305000000    -3.953000000
H    -2.903000000     0.798000000    -3.166000000
H    -3.490000000     0.218000000    -4.435000000
O    -0.341000000    -0.666000000     4.735000000
H    -0.218000000     0.006000000     4.065000000
H    -1.269000000    -0.896000000     4.676000000
O     0.935000000     0.496000000    -6.063000000
H     0.873000000     1.060000000    -5.292000000
H     0.062000000     0.114000000    -6.152000000
O    -5.358000000    -0.440000000     2.133000000
H    -5.637000000    -1.352000000     2.218000000
H    -5.180000000    -0.330000000     1.199000000
O    -4.340000000     2.284000000     1.625000000
H    -4.661000000     1.404000000     1.426000000
H    -4.199000000     2.687000000     0.769000000
O     3.687000000     3.665000000    -0.801000000
H     3.325000000     3.211000000    -1.561000000
H     3.925000000     4.532000000    -1.131000000
O    -3.141000000    -1.074000000     4.337000000
H    -3.537000000    -0.793000000     3.512000000
H    -3.878000000    -1.391000000     4.860000000
O     3.024000000    -2.427000000     2.217000000
H     2.329000000    -3.056000000     2.025000000
H     3.166000000    -2.507000000     3.160000000
O     2.527000000     2.578000000     4.221000000
H     2.284000000     3.146000000     3.489000000
H     3.128000000     1.939000000     3.838000000
O     0.473000000     3.975000000    -1.891000000
H     0.664000000     4.396000000    -1.053000000
H     0.856000000     4.559000000    -2.546000000
O     5.599000000    -0.569000000    -3.848000000
H     6.316000000     0.065000000    -3.829000000
H     5.234000000    -0.545000000    -2.964000000
O     1.423000000    -4.715000000     0.515000000
H     2.154000000    -5.092000000     0.027000000
H     1.006000000    -4.115000000    -0.103000000
O     3.112000000    -2.785000000    -2.235000000
H     3.695000000    -3.226000000    -1.617000000
H     3.401000000    -3.090000000    -3.095000000
O    -2.738000000     2.239000000     5.902000000
H    -2.842000000     2.475000000     4.980000000
H    -3.307000000     1.478000000     6.019000000
O    -5.923000000    -3.176000000     1.507000000
H    -5.096000000    -3.449000000     1.112000000
H    -6.583000000    -3.729000000     1.088000000
O     6.427000000     3.113000000     1.655000000
H     5.535000000     3.260000000     1.341000000
H     6.414000000     3.411000000     2.565000000
O     4.524000000    -0.401000000    -1.339000000
H     4.973000000    -0.740000000    -0.564000000
H     3.657000000    -0.805000000    -1.310000000
O     5.404000000    -1.481000000     0.893000000
H     4.643000000    -2.007000000     1.136000000
H     6.121000000    -1.840000000     1.416000000
O     0.641000000    -2.787000000    -1.294000000
H     0.461000000    -1.982000000    -0.809000000
H     1.522000000    -2.661000000    -1.648000000
O    -4.788000000    -1.692000000    -1.735000000
H    -4.259000000    -2.432000000    -1.436000000
H    -4.521000000    -0.965000000    -1.172000000
O    -1.635000000    -2.280000000    -4.481000000
H    -2.516000000    -2.510000000    -4.775000000
H    -1.683000000    -1.343000000    -4.290000000
O    -5.293000000     6.217000000    -1.578000000
H    -5.148000000     5.316000000    -1.868000000
H    -4.414000000     6.591000000    -1.509000000
O     6.197000000     1.860000000    -1.424000000
H     6.364000000     2.246000000    -0.565000000
H     5.473000000     1.251000000    -1.277000000
O    -7.364000000    -1.581000000    -2.260000000
H    -6.411000000    -1.589000000    -2.170000000
H    -7.608000000    -2.506000000    -2.301000000
O    -0.795000000     0.840000000     7.026000000
H    -1.507000000     1.371000000     6.669000000
H    -0.526000000     0.281000000     6.297000000
O     0.879000000    -4.636000000     3.151000000
H     0.942000000    -4.998000000     2.267000000
H    -0.009000000    -4.281000000     3.201000000
O     1.558000000     2.141000000    -3.953000000
H     1.345000000     2.677000000    -3.189000000
H     2.509000000     2.214000000    -4.038000000
O    -2.152000000     3.988000000    -0.752000000
H    -1.208000000     3.889000000    -0.875000000
H    -2.539000000     3.309000000    -1.305000000
O    -4.713000000     3.726000000    -2.813000000
H    -5.519000000     3.503000000    -3.280000000
H    -4.394000000     2.890000000    -2.473000000
O    -5.135000000     0.620000000    -5.245000000
H    -5.365000000     0.562000000    -6.173000000
H    -5.733000000     1.277000000    -4.890000000
O    -1.905000000    -3.643000000     3.230000000
H    -2.022000000    -3.783000000     2.290000000
H    -2.059000000    -2.706000000     3.354000000
