158
-3025.88759
C     0.032000000     1.046000000    -0.938000000
H    -0.039000000     1.848000000    -1.669000000
C    -1.066000000     0.869000000    -0.056000000
H    -1.999000000     1.410000000    -0.192000000
C    -0.935000000    -0.229000000     0.808000000
H    -1.806000000    -0.521000000     1.430000000
C     0.225000000    -0.937000000     0.851000000
H     0.218000000    -1.856000000     1.432000000
C     1.315000000    -0.776000000    -0.098000000
H     2.199000000    -1.407000000    -0.048000000
C     1.237000000     0.275000000    -0.936000000
C     2.285000000     0.684000000    -1.975000000
O     1.961000000     1.474000000    -2.864000000
O     3.362000000     0.088000000    -2.112000000
O     3.642000000     1.739000000    -5.107000000
H     3.442000000     1.182000000    -5.859000000
H     2.991000000     1.497000000    -4.449000000
O    -0.536000000    -6.549000000     2.965000000
H     0.128000000    -6.049000000     3.441000000
H    -0.656000000    -6.067000000     2.146000000
O     5.576000000    -1.263000000    -1.382000000
H     5.432000000    -2.191000000    -1.200000000
H     4.717000000    -0.935000000    -1.649000000
O    -4.699000000    -3.367000000    -2.626000000
H    -4.028000000    -2.711000000    -2.439000000
H    -4.516000000    -4.078000000    -2.012000000
O     3.625000000    -4.900000000     1.635000000
H     3.530000000    -5.189000000     0.728000000
H     4.133000000    -5.594000000     2.056000000
O     0.439000000    -5.544000000    -2.093000000
H     0.440000000    -4.591000000    -2.010000000
H     0.762000000    -5.709000000    -2.979000000
O     0.355000000     1.012000000    -7.011000000
H     1.188000000     0.615000000    -7.266000000
H     0.518000000     1.954000000    -7.047000000
O     3.258000000     2.510000000     3.032000000
H     3.606000000     1.665000000     3.318000000
H     2.443000000     2.293000000     2.581000000
O    -4.717000000     1.494000000     0.656000000
H    -4.558000000     2.338000000     0.234000000
H    -5.670000000     1.432000000     0.714000000
O    -2.730000000    -1.448000000    -1.803000000
H    -2.667000000    -0.574000000    -2.188000000
H    -3.154000000    -1.307000000    -0.956000000
O    -1.119000000    -5.234000000     0.648000000
H    -0.862000000    -5.544000000    -0.221000000
H    -1.824000000    -4.608000000     0.479000000
O    -0.046000000     2.391000000    -4.505000000
H     0.480000000     2.721000000    -5.234000000
H     0.578000000     1.916000000    -3.956000000
O    -2.599000000     3.244000000    -4.461000000
H    -1.671000000     3.014000000    -4.508000000
H    -2.909000000     3.175000000    -5.364000000
O    -3.192000000     1.988000000     2.990000000
H    -3.617000000     2.772000000     3.337000000
H    -3.484000000     1.941000000     2.080000000
O    -6.289000000    -3.702000000     2.187000000
H    -7.156000000    -3.301000000     2.139000000
H    -6.385000000    -4.536000000     1.727000000
O     3.001000000    -2.066000000     3.833000000
H     2.093000000    -2.276000000     3.617000000
H     3.191000000    -2.595000000     4.608000000
O     0.340000000    -1.058000000     4.316000000
H    -0.254000000    -1.784000000     4.122000000
H    -0.221000000    -0.387000000     4.705000000
O    -2.042000000     6.699000000    -0.074000000
H    -2.123000000     6.016000000    -0.740000000
H    -1.614000000     6.264000000     0.664000000
O    -1.149000000    -4.999000000     5.455000000
H    -2.068000000    -4.733000000     5.430000000
H    -0.710000000    -4.400000000     4.851000000
O    -0.846000000     4.288000000     0.948000000
H    -1.618000000     3.849000000     1.304000000
H    -0.336000000     3.585000000     0.543000000
O     1.186000000    -2.364000000    -3.722000000
H     0.976000000    -2.411000000    -2.789000000
H     0.480000000    -1.840000000    -4.100000000
O    -4.182000000    -1.215000000     4.712000000
H    -4.588000000    -0.525000000     5.237000000
H    -3.933000000    -0.781000000     3.896000000
O     1.197000000    -4.475000000     3.308000000
H     1.752000000    -4.383000000     2.534000000
H     1.756000000    -4.207000000     4.037000000
O     5.871000000     2.278000000    -3.539000000
H     6.071000000     1.863000000    -2.700000000
H     5.029000000     1.903000000    -3.796000000
O     0.405000000    -1.169000000     7.129000000
H     0.139000000    -1.374000000     6.233000000
H    -0.018000000    -1.841000000     7.664000000
O    -3.037000000     0.973000000    -2.861000000
H    -3.147000000     1.342000000    -3.738000000
H    -3.166000000     1.716000000    -2.271000000
O     6.866000000     3.631000000    -0.594000000
H     6.574000000     2.729000000    -0.721000000
H     6.271000000     3.985000000     0.066000000
O     8.391000000    -1.923000000    -2.652000000
H     9.013000000    -1.857000000    -1.926000000
H     7.535000000    -1.783000000    -2.247000000
O     3.415000000    -1.316000000    -4.778000000
H     3.822000000    -0.910000000    -4.013000000
H     2.477000000    -1.303000000    -4.587000000
O    -3.355000000    -3.334000000     1.171000000
H    -4.148000000    -3.689000000     1.573000000
H    -3.626000000    -2.487000000     0.815000000
O     4.660000000     0.308000000     4.193000000
H     4.327000000    -0.439000000     3.695000000
H     5.590000000     0.348000000     3.971000000
O    -2.380000000     4.923000000    -2.242000000
H    -1.434000000     5.031000000    -2.141000000
H    -2.481000000     4.474000000    -3.081000000
O    -1.537000000     0.831000000     4.730000000
H    -1.404000000     1.562000000     5.334000000
H    -2.206000000     1.142000000     4.121000000
O    -1.956000000    -2.632000000     3.721000000
H    -2.315000000    -2.971000000     2.901000000
H    -2.713000000    -2.270000000     4.182000000
O    -4.352000000     3.512000000    -1.119000000
H    -5.060000000     3.634000000    -1.751000000
H    -3.691000000     4.157000000    -1.372000000
O     4.815000000     1.313000000    -0.410000000
H     5.524000000     0.679000000    -0.302000000
H     4.267000000     0.944000000    -1.103000000
O     3.923000000     4.375000000    -6.303000000
H     4.020000000     3.591000000    -5.763000000
H     3.810000000     5.087000000    -5.673000000
O     2.874000000     4.006000000    -1.539000000
H     3.732000000     4.136000000    -1.942000000
H     2.499000000     3.260000000    -2.008000000
O    -4.319000000    -1.164000000     0.169000000
H    -5.057000000    -1.418000000    -0.385000000
H    -4.506000000    -0.258000000     0.415000000
O     0.300000000     5.599000000    -2.258000000
H     0.985000000     4.936000000    -2.177000000
H     0.337000000     6.084000000    -1.433000000
O    -5.595000000    -3.492000000     4.749000000
H    -5.959000000    -3.691000000     3.886000000
H    -4.990000000    -2.766000000     4.593000000
O     4.647000000     3.703000000     0.927000000
H     4.661000000     2.905000000     0.398000000
H     4.200000000     3.448000000     1.733000000
O     2.433000000     5.724000000     0.702000000
H     2.933000000     5.291000000     1.394000000
H     2.580000000     5.183000000    -0.074000000
O     6.659000000    -2.991000000     1.376000000
H     6.051000000    -3.416000000     0.771000000
H     6.803000000    -2.122000000     1.000000000
O     0.754000000     1.591000000     2.628000000
H     0.017000000     1.377000000     3.200000000
H     0.852000000     0.822000000     2.066000000
O    -1.236000000    -0.870000000    -4.908000000
H    -1.682000000    -0.450000000    -4.172000000
H    -0.598000000    -0.220000000    -5.202000000
O     5.968000000    -1.964000000    -5.549000000
H     5.205000000    -1.455000000    -5.274000000
H     5.696000000    -2.876000000    -5.449000000
O    -0.414000000    -2.817000000    -1.356000000
H    -1.246000000    -2.519000000    -1.724000000
H    -0.449000000    -2.549000000    -0.438000000
