158
-3057.14460
C    -0.597000000     1.110000000    -0.822000000
H    -1.107000000     1.834000000    -1.452000000
C    -1.112000000     0.666000000     0.428000000
H    -1.971000000     1.227000000     0.787000000
C    -0.449000000    -0.367000000     1.111000000
H    -0.850000000    -0.637000000     2.156000000
C     0.690000000    -0.950000000     0.555000000
H     1.173000000    -1.768000000     1.083000000
C     1.239000000    -0.549000000    -0.676000000
H     2.164000000    -1.044000000    -0.958000000
C     0.547000000     0.499000000    -1.368000000
C     1.024000000     0.977000000    -2.697000000
O     0.768000000     2.125000000    -3.102000000
O     1.607000000     0.297000000    -3.492000000
O     3.120000000    -5.019000000     0.365000000
H     3.791000000    -4.360000000     0.185000000
H     2.723000000    -5.195000000    -0.488000000
O     2.841000000    -2.863000000     3.688000000
H     1.885000000    -2.806000000     3.675000000
H     3.134000000    -1.955000000     3.757000000
O     4.338000000    -0.223000000    -3.385000000
H     3.412000000     0.002000000    -3.301000000
H     4.652000000    -0.288000000    -2.483000000
O     4.544000000    -3.451000000    -2.851000000
H     5.395000000    -3.435000000    -3.289000000
H     4.753000000    -3.392000000    -1.918000000
O     2.939000000    -5.802000000    -2.591000000
H     2.615000000    -6.016000000    -3.466000000
H     3.333000000    -4.935000000    -2.686000000
O     1.680000000    -2.488000000    -3.624000000
H     1.345000000    -1.594000000    -3.547000000
H     2.631000000    -2.391000000    -3.586000000
O     1.751000000    -4.039000000    -5.871000000
H     1.536000000    -3.653000000    -5.022000000
H     1.064000000    -3.723000000    -6.459000000
O     2.822000000     0.856000000     1.316000000
H     2.863000000    -0.096000000     1.229000000
H     1.892000000     1.045000000     1.441000000
O    -4.216000000    -0.867000000     1.664000000
H    -4.371000000    -0.073000000     1.153000000
H    -4.260000000    -0.578000000     2.575000000
O     2.464000000    -5.542000000     2.969000000
H     2.746000000    -5.307000000     2.085000000
H     2.795000000    -4.834000000     3.523000000
O    -3.691000000     0.389000000    -2.985000000
H    -2.997000000     0.767000000    -3.525000000
H    -4.050000000    -0.321000000    -3.518000000
O     5.760000000    -1.218000000     1.782000000
H     5.306000000    -1.798000000     2.394000000
H     6.238000000    -0.606000000     2.342000000
O     0.088000000    -3.340000000     3.569000000
H    -0.123000000    -3.947000000     4.279000000
H    -0.659000000    -3.398000000     2.974000000
O     5.540000000    -3.151000000    -0.129000000
H     6.317000000    -3.644000000     0.132000000
H     5.609000000    -2.324000000     0.349000000
O     5.008000000     0.421000000    -6.284000000
H     5.121000000     0.142000000    -5.375000000
H     5.900000000     0.532000000    -6.613000000
O     3.161000000     2.048000000    -8.074000000
H     2.750000000     2.019000000    -7.210000000
H     4.089000000     1.883000000    -7.903000000
O    -5.031000000     1.052000000    -0.460000000
H    -5.832000000     0.615000000    -0.751000000
H    -4.391000000     0.861000000    -1.145000000
O    -0.295000000     3.772000000     1.387000000
H    -1.155000000     3.979000000     1.022000000
H    -0.279000000     2.816000000     1.435000000
O     5.278000000     0.139000000    -0.985000000
H     5.853000000    -0.499000000    -0.561000000
H     5.229000000     0.865000000    -0.364000000
O    -0.148000000     1.975000000    -7.037000000
H    -0.419000000     1.348000000    -7.708000000
H    -0.530000000     2.806000000    -7.317000000
O     4.598000000     4.112000000    -4.742000000
H     4.183000000     3.475000000    -5.324000000
H     4.131000000     4.017000000    -3.911000000
O    -0.848000000     2.133000000     5.868000000
H     0.021000000     2.532000000     5.899000000
H    -1.384000000     2.761000000     5.384000000
O    -3.113000000    -3.130000000     5.843000000
H    -3.449000000    -2.931000000     4.969000000
H    -2.335000000    -2.579000000     5.932000000
O    -1.363000000    -2.880000000    -0.236000000
H    -1.723000000    -3.488000000     0.409000000
H    -1.027000000    -2.150000000     0.284000000
O     1.896000000     5.703000000    -4.986000000
H     2.219000000     5.221000000    -5.747000000
H     2.237000000     5.220000000    -4.233000000
O     3.534000000     3.166000000    -0.182000000
H     4.286000000     3.600000000     0.221000000
H     3.143000000     2.657000000     0.529000000
O    -3.041000000     3.596000000     3.497000000
H    -2.927000000     4.460000000     3.892000000
H    -3.879000000     3.652000000     3.037000000
O    -1.062000000    -2.390000000    -5.220000000
H    -0.650000000    -1.619000000    -5.609000000
H    -1.186000000    -2.157000000    -4.300000000
O     2.501000000     2.346000000    -5.319000000
H     1.834000000     2.326000000    -4.633000000
H     3.039000000     1.572000000    -5.152000000
O     0.873000000    -0.438000000    -5.950000000
H     1.292000000    -0.250000000    -5.110000000
H     0.773000000     0.420000000    -6.364000000
O    -3.071000000     5.683000000    -2.330000000
H    -3.118000000     6.447000000    -2.904000000
H    -2.233000000     5.272000000    -2.545000000
O     3.765000000     6.455000000    -2.360000000
H     3.262000000     5.663000000    -2.172000000
H     3.310000000     6.859000000    -3.098000000
O    -1.696000000    -1.795000000    -2.855000000
H    -2.450000000    -1.205000000    -2.871000000
H    -1.748000000    -2.227000000    -2.002000000
O    -1.518000000    -0.756000000     5.715000000
H    -0.614000000    -0.518000000     5.508000000
H    -1.584000000    -0.645000000     6.664000000
O    -4.845000000    -3.255000000     0.962000000
H    -5.366000000    -3.548000000     1.711000000
H    -4.432000000    -2.445000000     1.261000000
O    -2.987000000     4.919000000     0.415000000
H    -3.261000000     5.049000000    -0.493000000
H    -2.861000000     5.805000000     0.756000000
O    -1.419000000     1.457000000    -4.515000000
H    -1.326000000     1.552000000    -5.462000000
H    -0.520000000     1.429000000    -4.187000000
O     2.888000000     3.919000000    -2.598000000
H     3.255000000     3.694000000    -1.743000000
H     2.119000000     3.355000000    -2.685000000
O    -0.706000000     4.562000000    -2.462000000
H    -0.487000000     3.638000000    -2.341000000
H    -0.076000000     5.032000000    -1.916000000
O     0.865000000     5.168000000    -0.567000000
H     1.645000000     5.551000000    -0.165000000
H     0.525000000     4.566000000     0.095000000
O    -4.929000000     3.103000000     1.307000000
H    -4.241000000     3.709000000     1.033000000
H    -5.134000000     2.600000000     0.518000000
O     0.147000000    -4.322000000    -2.096000000
H    -0.461000000    -3.821000000    -1.553000000
H     0.622000000    -3.659000000    -2.598000000
O    -1.301000000     5.689000000    -5.410000000
H    -1.552000000     6.581000000    -5.170000000
H    -0.555000000     5.490000000    -4.844000000
O    -1.990000000    -4.574000000     2.174000000
H    -1.391000000    -5.318000000     2.238000000
H    -2.854000000    -4.946000000     2.352000000
O    -3.167000000     3.658000000    -5.061000000
H    -2.593000000     3.042000000    -4.605000000
H    -2.621000000     4.429000000    -5.211000000
O    -5.282000000     4.022000000    -1.981000000
H    -4.485000000     4.464000000    -2.273000000
H    -5.529000000     3.462000000    -2.718000000
O    -4.028000000     0.500000000     4.166000000
H    -3.875000000     1.409000000     3.908000000
H    -3.309000000     0.297000000     4.764000000
O     4.314000000    -2.768000000    -6.356000000
H     4.055000000    -1.859000000    -6.202000000
H     3.539000000    -3.280000000    -6.124000000
