158
-3029.05836
C    -0.051000000     1.347000000    -0.540000000
H    -0.336000000     2.303000000    -0.973000000
C    -0.842000000     0.901000000     0.536000000
H    -1.739000000     1.443000000     0.824000000
C    -0.643000000    -0.424000000     0.945000000
H    -1.257000000    -0.896000000     1.660000000
C     0.336000000    -1.271000000     0.379000000
H     0.452000000    -2.344000000     0.512000000
C     1.126000000    -0.736000000    -0.635000000
H     1.907000000    -1.357000000    -1.066000000
C     0.944000000     0.553000000    -1.075000000
C     1.798000000     1.060000000    -2.200000000
O     1.843000000     2.261000000    -2.533000000
O     2.629000000     0.401000000    -2.657000000
O     2.738000000    -3.973000000    -2.488000000
H     2.615000000    -3.707000000    -1.577000000
H     3.592000000    -3.614000000    -2.729000000
O    -1.339000000     5.328000000    -3.345000000
H    -2.008000000     5.806000000    -3.835000000
H    -0.806000000     6.012000000    -2.938000000
O     4.725000000     0.294000000    -0.808000000
H     4.040000000     0.259000000    -1.475000000
H     4.355000000    -0.175000000    -0.060000000
O     6.945000000     2.133000000    -0.944000000
H     6.490000000     2.791000000    -0.418000000
H     6.253000000     1.544000000    -1.242000000
O     3.470000000     6.540000000    -2.752000000
H     4.064000000     5.792000000    -2.694000000
H     3.422000000     6.737000000    -3.688000000
O     2.801000000    -1.679000000    -4.626000000
H     3.533000000    -1.198000000    -4.239000000
H     2.449000000    -2.200000000    -3.904000000
O     4.262000000    -0.111000000     2.011000000
H     3.338000000    -0.155000000     2.256000000
H     4.609000000     0.626000000     2.514000000
O    -3.906000000    -3.019000000     1.904000000
H    -3.612000000    -3.740000000     1.347000000
H    -4.444000000    -2.475000000     1.329000000
O    -2.422000000     0.212000000    -3.337000000
H    -2.132000000    -0.696000000    -3.251000000
H    -1.639000000     0.689000000    -3.611000000
O    -1.136000000    -5.225000000     5.668000000
H    -0.480000000    -4.594000000     5.373000000
H    -1.907000000    -5.037000000     5.133000000
O    -0.075000000    -5.561000000     0.713000000
H     0.047000000    -6.470000000     0.441000000
H    -1.024000000    -5.435000000     0.712000000
O     3.028000000    -3.488000000     0.059000000
H     2.270000000    -3.541000000     0.641000000
H     3.783000000    -3.547000000     0.643000000
O     5.577000000     1.193000000    -6.697000000
H     5.780000000     2.119000000    -6.563000000
H     4.703000000     1.083000000    -6.324000000
O    -4.754000000    -1.485000000     0.032000000
H    -4.331000000    -0.649000000    -0.160000000
H    -4.420000000    -2.082000000    -0.638000000
O    -1.524000000     4.144000000     1.476000000
H    -1.784000000     3.583000000     0.745000000
H    -0.803000000     4.670000000     1.130000000
O    -4.880000000    -0.771000000    -3.029000000
H    -4.861000000    -0.901000000    -2.081000000
H    -4.056000000    -0.324000000    -3.226000000
O     1.586000000     0.373000000    -6.814000000
H     1.744000000     0.346000000    -7.758000000
H     1.645000000    -0.541000000    -6.536000000
O    -1.266000000     4.810000000     4.069000000
H    -1.649000000     5.687000000     4.095000000
H    -1.651000000     4.403000000     3.293000000
O     3.026000000     4.208000000    -5.990000000
H     2.244000000     4.355000000    -5.458000000
H     3.339000000     3.344000000    -5.722000000
O    -3.524000000    -4.699000000     4.159000000
H    -3.913000000    -5.505000000     3.818000000
H    -3.704000000    -4.043000000     3.486000000
O    -3.098000000    -5.264000000     0.334000000
H    -2.813000000    -5.960000000    -0.258000000
H    -3.411000000    -5.725000000     1.112000000
O     2.537000000     2.856000000     1.433000000
H     3.321000000     2.362000000     1.675000000
H     1.849000000     2.505000000     1.999000000
O    -6.967000000     0.390000000    -0.207000000
H    -7.847000000     0.294000000     0.156000000
H    -6.432000000    -0.226000000     0.294000000
O    -1.479000000     1.883000000     5.453000000
H    -0.663000000     2.135000000     5.021000000
H    -1.203000000     1.530000000     6.299000000
O     1.550000000    -4.182000000     2.386000000
H     0.980000000    -4.147000000     3.155000000
H     0.949000000    -4.267000000     1.646000000
O     3.431000000     1.504000000    -5.119000000
H     3.004000000     1.635000000    -4.272000000
H     2.735000000     1.178000000    -5.690000000
O     1.482000000     0.197000000     3.198000000
H     1.398000000     1.014000000     3.691000000
H     0.613000000     0.053000000     2.823000000
O     5.251000000    -0.558000000    -3.737000000
H     4.873000000     0.225000000    -4.138000000
H     4.982000000    -0.511000000    -2.820000000
O     4.220000000     3.723000000    -3.046000000
H     3.321000000     3.404000000    -3.127000000
H     4.714000000     2.968000000    -2.728000000
O    -1.382000000    -2.137000000    -2.440000000
H    -0.674000000    -2.309000000    -1.819000000
H    -2.125000000    -2.636000000    -2.100000000
O    -0.197000000    -5.610000000    -2.697000000
H     0.332000000    -5.683000000    -1.903000000
H     0.439000000    -5.456000000    -3.395000000
O     0.461000000    -3.053000000     5.028000000
H     1.287000000    -2.633000000     5.268000000
H    -0.202000000    -2.379000000     5.179000000
O    -3.825000000     3.414000000    -0.323000000
H    -4.571000000     3.975000000    -0.115000000
H    -3.723000000     3.493000000    -1.271000000
O    -0.325000000     1.971000000    -4.265000000
H    -0.090000000     2.185000000    -5.168000000
H     0.366000000     2.370000000    -3.737000000
O    -1.651000000    -1.551000000     5.805000000
H    -1.199000000    -0.752000000     6.077000000
H    -2.303000000    -1.253000000     5.171000000
O     1.744000000     4.383000000    -0.901000000
H     2.087000000     4.107000000    -0.051000000
H     1.767000000     3.591000000    -1.437000000
O     1.432000000     4.630000000    -3.883000000
H     1.817000000     4.968000000    -3.075000000
H     0.505000000     4.509000000    -3.674000000
O    -0.222000000     6.211000000     0.183000000
H    -0.479000000     7.034000000    -0.233000000
H     0.508000000     5.892000000    -0.347000000
O     4.866000000     4.081000000    -0.359000000
H     3.965000000     3.820000000    -0.546000000
H     4.789000000     4.958000000     0.016000000
O    -4.962000000     1.189000000     2.754000000
H    -5.887000000     1.167000000     3.000000000
H    -4.910000000     1.866000000     2.080000000
O     2.345000000    -6.502000000    -1.640000000
H     2.421000000    -5.549000000    -1.670000000
H     2.880000000    -6.809000000    -2.372000000
O    -4.440000000    -1.302000000     3.905000000
H    -4.459000000    -0.445000000     3.480000000
H    -4.153000000    -1.904000000     3.218000000
O     0.550000000     2.780000000     3.936000000
H     0.004000000     3.566000000     3.905000000
H     1.396000000     3.090000000     4.260000000
O    -3.313000000     3.286000000    -3.598000000
H    -2.417000000     3.594000000    -3.465000000
H    -3.222000000     2.348000000    -3.764000000
O    -3.545000000     0.604000000    -0.771000000
H    -3.641000000     1.502000000    -1.090000000
H    -2.615000000     0.408000000    -0.887000000
O    -4.245000000     2.086000000     5.511000000
H    -3.327000000     2.350000000     5.442000000
H    -4.500000000     1.871000000     4.614000000
O    -3.681000000    -3.499000000    -1.588000000
H    -4.039000000    -3.900000000    -2.380000000
H    -3.635000000    -4.216000000    -0.956000000
O     0.993000000    -2.362000000    -6.487000000
H     1.493000000    -2.030000000    -5.741000000
H     0.119000000    -2.529000000    -6.134000000
