158
-3040.67105
C    -0.046000000     1.428000000    -0.318000000
H     0.009000000     2.513000000    -0.296000000
C    -0.471000000     0.823000000     0.848000000
H    -0.893000000     1.454000000     1.627000000
C    -0.460000000    -0.571000000     1.029000000
H    -0.868000000    -1.109000000     1.847000000
C    -0.078000000    -1.283000000    -0.079000000
H    -0.167000000    -2.358000000     0.060000000
C     0.463000000    -0.688000000    -1.212000000
H     0.844000000    -1.196000000    -2.094000000
C     0.569000000     0.650000000    -1.320000000
C     1.316000000     1.296000000    -2.479000000
O     1.243000000     2.501000000    -2.576000000
O     1.876000000     0.678000000    -3.369000000
O     3.279000000    -3.971000000    -2.249000000
H     4.005000000    -3.425000000    -2.552000000
H     3.699000000    -4.758000000    -1.902000000
O     3.971000000    -0.527000000    -1.493000000
H     3.300000000    -1.138000000    -1.797000000
H     4.506000000    -1.039000000    -0.888000000
O    -5.177000000    -3.412000000     4.905000000
H    -4.303000000    -3.745000000     4.700000000
H    -5.352000000    -2.762000000     4.224000000
O     3.412000000     7.296000000    -2.855000000
H     3.226000000     6.445000000    -2.457000000
H     3.185000000     7.183000000    -3.778000000
O     1.069000000    -1.936000000    -4.770000000
H     1.587000000    -1.131000000    -4.752000000
H     0.330000000    -1.759000000    -4.188000000
O     6.871000000     0.365000000    -2.912000000
H     6.090000000     0.910000000    -2.819000000
H     6.557000000    -0.432000000    -3.338000000
O     4.560000000    -1.994000000     0.903000000
H     4.847000000    -2.714000000     1.465000000
H     3.759000000    -1.673000000     1.316000000
O    -3.890000000    -1.395000000     0.323000000
H    -3.663000000    -1.198000000    -0.586000000
H    -3.059000000    -1.342000000     0.794000000
O    -2.585000000    -0.119000000    -2.637000000
H    -2.018000000    -0.771000000    -3.049000000
H    -2.181000000     0.721000000    -2.854000000
O    -0.623000000    -6.583000000     2.605000000
H    -0.549000000    -6.179000000     1.741000000
H    -1.506000000    -6.953000000     2.622000000
O    -1.888000000    -4.503000000     0.719000000
H    -2.710000000    -4.396000000     0.240000000
H    -1.208000000    -4.303000000     0.075000000
O     5.492000000     0.106000000    -5.580000000
H     6.162000000     0.785000000    -5.511000000
H     4.740000000     0.550000000    -5.973000000
O    -6.057000000    -2.719000000     0.988000000
H    -5.340000000    -2.203000000     0.618000000
H    -6.720000000    -2.736000000     0.298000000
O    -3.889000000     3.664000000     2.209000000
H    -4.326000000     2.816000000     2.127000000
H    -4.580000000     4.306000000     2.049000000
O     1.014000000     6.059000000    -5.041000000
H     0.580000000     5.224000000    -4.864000000
H     0.311000000     6.634000000    -5.345000000
O    -1.537000000     5.228000000     2.651000000
H    -1.811000000     5.673000000     1.850000000
H    -2.192000000     4.541000000     2.779000000
O    -1.190000000     0.411000000    -5.601000000
H    -1.415000000     0.843000000    -4.776000000
H    -0.626000000     1.038000000    -6.054000000
O     3.041000000     4.675000000    -6.576000000
H     2.337000000     5.120000000    -6.105000000
H     3.043000000     3.786000000    -6.220000000
O     2.473000000    -3.567000000     2.923000000
H     2.170000000    -2.670000000     2.780000000
H     2.350000000    -3.715000000     3.860000000
O     0.524000000     2.307000000    -7.196000000
H     1.124000000     1.573000000    -7.325000000
H     0.634000000     2.846000000    -7.980000000
O     2.570000000     2.535000000     2.779000000
H     3.182000000     1.845000000     2.523000000
H     2.845000000     3.299000000     2.272000000
O    -1.567000000     2.009000000     4.181000000
H    -1.238000000     2.777000000     4.647000000
H    -1.420000000     1.281000000     4.785000000
O     2.934000000     1.594000000    -5.765000000
H     2.572000000     1.329000000    -4.919000000
H     2.653000000     0.908000000    -6.370000000
O     1.907000000    -0.948000000     3.273000000
H     2.087000000    -0.216000000     3.862000000
H     1.469000000    -0.548000000     2.521000000
O     4.451000000     1.891000000    -2.689000000
H     3.881000000     2.098000000    -3.429000000
H     3.992000000     1.192000000    -2.222000000
O    -5.239000000    -0.175000000     5.959000000
H    -5.319000000    -0.427000000     5.040000000
H    -5.646000000    -0.895000000     6.441000000
O    -1.925000000    -3.068000000    -5.753000000
H    -1.316000000    -3.015000000    -5.017000000
H    -2.546000000    -3.752000000    -5.500000000
O     2.974000000     4.298000000    -1.585000000
H     2.252000000     3.739000000    -1.870000000
H     3.762000000     3.831000000    -1.864000000
O    -1.139000000    -2.917000000    -2.841000000
H    -0.531000000    -3.306000000    -2.213000000
H    -1.975000000    -2.882000000    -2.375000000
O    -0.745000000     0.157000000     6.091000000
H    -0.664000000    -0.239000000     6.959000000
H     0.136000000     0.474000000     5.890000000
O     0.518000000    -4.367000000    -1.095000000
H     0.364000000    -5.101000000    -0.501000000
H     1.465000000    -4.367000000    -1.236000000
O     1.601000000    -3.704000000     5.578000000
H     2.172000000    -3.050000000     5.981000000
H     0.728000000    -3.312000000     5.610000000
O    -3.853000000     1.571000000    -0.121000000
H    -3.051000000     1.146000000    -0.426000000
H    -3.784000000     2.470000000    -0.441000000
O    -2.135000000     2.358000000    -3.831000000
H    -1.408000000     2.921000000    -4.096000000
H    -2.917000000     2.814000000    -4.144000000
O    -1.207000000    -2.677000000     5.491000000
H    -1.353000000    -1.757000000     5.270000000
H    -1.702000000    -3.164000000     4.832000000
O    -0.314000000     4.602000000    -1.851000000
H    -0.844000000     4.709000000    -2.642000000
H     0.225000000     3.831000000    -2.026000000
O    -0.080000000     3.559000000    -4.805000000
H     0.494000000     3.275000000    -4.093000000
H     0.257000000     3.109000000    -5.579000000
O    -1.827000000     6.190000000     0.058000000
H    -1.590000000     6.925000000    -0.509000000
H    -1.363000000     5.441000000    -0.316000000
O     3.314000000     4.714000000     1.344000000
H     3.007000000     4.835000000     0.446000000
H     4.269000000     4.724000000     1.274000000
O    -5.670000000    -1.100000000     3.121000000
H    -5.843000000    -1.710000000     2.404000000
H    -4.922000000    -0.584000000     2.822000000
O     0.798000000     4.811000000     3.947000000
H     0.111000000     5.042000000     3.322000000
H     1.379000000     4.227000000     3.460000000
O     1.360000000    -5.140000000    -4.495000000
H     2.093000000    -5.312000000    -3.903000000
H     1.242000000    -4.191000000    -4.461000000
O    -2.688000000    -4.482000000     3.814000000
H    -3.265000000    -4.578000000     3.056000000
H    -2.184000000    -5.296000000     3.836000000
O     1.459000000     1.332000000     5.263000000
H     1.619000000     1.784000000     4.434000000
H     2.169000000     1.622000000     5.835000000
O    -3.495000000     4.027000000    -0.877000000
H    -3.234000000     4.590000000    -0.148000000
H    -2.897000000     4.262000000    -1.587000000
O    -3.628000000     0.645000000     2.610000000
H    -3.778000000     1.022000000     1.743000000
H    -2.965000000     1.209000000     3.006000000
O     2.574000000    -1.423000000     6.549000000
H     3.272000000    -1.269000000     7.185000000
H     2.069000000    -0.610000000     6.546000000
O    -3.638000000    -3.913000000    -2.093000000
H    -4.081000000    -3.790000000    -2.933000000
H    -4.243000000    -4.448000000    -1.579000000
