158
-3005.11129
C     1.081000000    -0.188000000    -0.994000000
H     1.892000000    -0.479000000    -1.656000000
C     1.118000000    -0.561000000     0.313000000
H     1.983000000    -1.108000000     0.679000000
C     0.097000000    -0.290000000     1.148000000
H     0.154000000    -0.655000000     2.186000000
C    -1.024000000     0.332000000     0.671000000
H    -1.909000000     0.395000000     1.300000000
C    -1.062000000     0.807000000    -0.632000000
H    -1.995000000     1.217000000    -1.011000000
C    -0.010000000     0.475000000    -1.489000000
C    -0.157000000     0.841000000    -2.919000000
O     0.682000000     0.421000000    -3.675000000
O    -1.066000000     1.592000000    -3.235000000
O    -2.113000000    -5.514000000     5.259000000
H    -2.732000000    -4.841000000     4.978000000
H    -2.189000000    -5.526000000     6.214000000
O     2.627000000    -3.813000000     1.063000000
H     3.542000000    -3.953000000     1.310000000
H     2.193000000    -4.639000000     1.274000000
O    -4.861000000     0.392000000    -2.966000000
H    -4.642000000     0.151000000    -2.066000000
H    -4.093000000     0.136000000    -3.476000000
O     4.085000000    -3.577000000     4.098000000
H     3.542000000    -4.363000000     4.040000000
H     4.812000000    -3.830000000     4.666000000
O    -3.633000000    -0.809000000    -0.855000000
H    -2.957000000    -1.482000000    -0.930000000
H    -3.608000000    -0.546000000     0.065000000
O    -0.840000000    -1.940000000    -5.595000000
H     0.003000000    -2.312000000    -5.338000000
H    -1.360000000    -2.694000000    -5.871000000
O     2.272000000    -1.494000000    -4.068000000
H     3.112000000    -1.072000000    -4.248000000
H     1.650000000    -0.769000000    -4.003000000
O     2.091000000    -1.964000000     3.323000000
H     2.994000000    -2.204000000     3.531000000
H     1.892000000    -2.452000000     2.523000000
O    -3.689000000    -3.329000000     4.514000000
H    -3.403000000    -2.546000000     4.044000000
H    -3.846000000    -3.977000000     3.828000000
O     3.034000000     2.430000000     0.519000000
H     3.297000000     1.784000000     1.175000000
H     2.171000000     2.727000000     0.808000000
O    -5.041000000     1.248000000     0.912000000
H    -4.732000000     1.603000000     1.746000000
H    -4.778000000     1.899000000     0.262000000
O    -1.555000000    -0.974000000     5.309000000
H    -0.907000000    -1.582000000     4.954000000
H    -1.657000000    -1.240000000     6.223000000
O     7.079000000    -2.210000000     0.854000000
H     6.378000000    -1.786000000     0.358000000
H     7.183000000    -1.665000000     1.634000000
O    -2.186000000     3.717000000    -1.998000000
H    -1.439000000     4.305000000    -2.114000000
H    -1.893000000     2.882000000    -2.362000000
O     0.075000000     5.360000000     1.127000000
H     0.118000000     4.456000000     1.440000000
H     0.794000000     5.803000000     1.577000000
O     2.396000000     2.470000000    -7.902000000
H     2.039000000     1.940000000    -7.190000000
H     3.229000000     2.798000000    -7.562000000
O    -2.938000000    -5.016000000    -0.067000000
H    -2.369000000    -4.418000000     0.418000000
H    -2.418000000    -5.813000000    -0.168000000
O     3.842000000     1.105000000    -1.687000000
H     3.432000000     1.550000000    -2.429000000
H     3.446000000     1.510000000    -0.916000000
O    -2.805000000    -2.893000000    -3.164000000
H    -1.872000000    -2.849000000    -2.958000000
H    -3.012000000    -2.029000000    -3.523000000
O     1.199000000     0.176000000     5.032000000
H     1.550000000    -0.459000000     5.656000000
H     1.173000000    -0.294000000     4.199000000
O     2.529000000     2.477000000    -3.539000000
H     2.125000000     1.675000000    -3.870000000
H     3.440000000     2.423000000    -3.827000000
O     0.998000000     0.708000000    -6.489000000
H     0.794000000     0.268000000    -5.663000000
H     0.392000000     0.322000000    -7.122000000
O     3.754000000     0.245000000     2.462000000
H     3.211000000    -0.541000000     2.526000000
H     4.449000000     0.109000000     3.106000000
O    -0.400000000     5.831000000    -1.581000000
H    -0.687000000     5.434000000    -0.758000000
H     0.554000000     5.749000000    -1.565000000
O     0.186000000    -3.006000000    -2.733000000
H     0.349000000    -3.098000000    -1.795000000
H     0.910000000    -2.467000000    -3.051000000
O     2.070000000     5.169000000    -3.046000000
H     1.908000000     4.228000000    -3.098000000
H     2.609000000     5.277000000    -2.262000000
O    -0.104000000    -3.202000000     4.552000000
H     0.146000000    -3.643000000     5.364000000
H     0.712000000    -3.129000000     4.058000000
O     0.237000000    -5.718000000     1.604000000
H    -0.418000000    -5.022000000     1.658000000
H     0.496000000    -5.733000000     0.682000000
O    -1.150000000     2.850000000     4.030000000
H    -1.902000000     2.260000000     3.972000000
H    -1.353000000     3.424000000     4.769000000
O    -3.244000000     0.803000000     4.033000000
H    -3.811000000     0.470000000     4.729000000
H    -2.412000000     0.348000000     4.164000000
O     3.485000000    -3.883000000    -4.414000000
H     4.377000000    -3.553000000    -4.525000000
H     2.989000000    -3.128000000    -4.097000000
O     4.813000000     1.780000000    -4.529000000
H     5.708000000     1.748000000    -4.193000000
H     4.740000000     1.010000000    -5.093000000
O     1.445000000     3.007000000     4.753000000
H     1.682000000     2.097000000     4.931000000
H     0.520000000     2.970000000     4.510000000
O    -1.648000000    -3.646000000     1.869000000
H    -1.085000000    -3.538000000     2.636000000
H    -2.368000000    -3.032000000     2.012000000
O     0.417000000     5.144000000    -5.529000000
H     0.226000000     4.207000000    -5.565000000
H     1.040000000     5.234000000    -4.807000000
O    -4.137000000     3.687000000    -0.050000000
H    -3.384000000     3.856000000    -0.617000000
H    -3.935000000     4.152000000     0.761000000
O    -0.794000000     2.500000000    -5.699000000
H    -0.851000000     2.154000000    -4.808000000
H     0.037000000     2.163000000    -6.034000000
O     3.883000000    -3.018000000    -1.213000000
H     3.987000000    -3.911000000    -1.542000000
H     3.509000000    -3.126000000    -0.339000000
O    -3.067000000     4.477000000    -6.622000000
H    -2.583000000     3.682000000    -6.846000000
H    -3.975000000     4.188000000    -6.537000000
O    -0.607000000     1.369000000     6.843000000
H    -0.890000000     0.700000000     7.466000000
H     0.086000000     0.947000000     6.336000000
O     6.257000000     2.560000000    -1.584000000
H     6.929000000     2.260000000    -2.196000000
H     5.483000000     2.044000000    -1.807000000
O    -5.155000000     3.571000000    -2.871000000
H    -5.816000000     3.205000000    -2.283000000
H    -4.451000000     3.859000000    -2.291000000
O    -4.693000000     0.134000000    -6.237000000
H    -4.046000000     0.316000000    -5.555000000
H    -4.213000000    -0.371000000    -6.893000000
O     5.663000000    -0.939000000    -1.082000000
H     5.136000000    -0.161000000    -1.265000000
H     5.190000000    -1.654000000    -1.508000000
O    -3.485000000    -1.615000000     2.158000000
H    -3.380000000    -0.736000000     2.520000000
H    -4.399000000    -1.649000000     1.873000000
O     2.130000000    -1.455000000     7.010000000
H     2.019000000    -1.706000000     7.927000000
H     3.050000000    -1.200000000     6.941000000
O     0.369000000     2.705000000     1.697000000
H    -0.224000000     2.936000000     2.412000000
H     0.129000000     1.808000000     1.467000000
O    -2.660000000    -0.073000000    -4.409000000
H    -2.192000000     0.715000000    -4.132000000
H    -2.021000000    -0.561000000    -4.927000000
