158
-2980.13963
C    -0.395000000    -0.797000000    -1.196000000
H    -0.725000000    -1.432000000    -2.014000000
C    -0.779000000    -1.069000000     0.134000000
H    -1.639000000    -1.717000000     0.281000000
C    -0.307000000    -0.274000000     1.168000000
H    -0.688000000    -0.385000000     2.202000000
C     0.647000000     0.728000000     0.933000000
H     0.974000000     1.347000000     1.765000000
C     1.047000000     0.972000000    -0.401000000
H     1.818000000     1.699000000    -0.643000000
C     0.500000000     0.264000000    -1.444000000
C     0.793000000     0.619000000    -2.872000000
O     0.118000000     0.128000000    -3.741000000
O     1.744000000     1.256000000    -3.154000000
O    -4.427000000     1.558000000     2.054000000
H    -4.975000000     1.695000000     2.827000000
H    -3.694000000     2.163000000     2.170000000
O     1.132000000    -2.816000000     2.858000000
H     1.977000000    -2.671000000     3.283000000
H     0.968000000    -2.009000000     2.369000000
O    -4.596000000     1.015000000    -3.961000000
H    -4.099000000     0.426000000    -4.528000000
H    -3.963000000     1.307000000    -3.305000000
O    -5.062000000     2.320000000     4.739000000
H    -4.582000000     2.566000000     5.530000000
H    -5.873000000     1.929000000     5.064000000
O     2.866000000     2.870000000     4.128000000
H     1.952000000     2.590000000     4.077000000
H     3.290000000     2.205000000     4.669000000
O     0.161000000    -4.894000000     0.302000000
H    -0.155000000    -4.467000000     1.098000000
H     1.087000000    -4.653000000     0.252000000
O    -2.084000000    -1.037000000    -7.568000000
H    -2.703000000    -1.108000000    -8.294000000
H    -2.606000000    -0.696000000    -6.841000000
O     3.766000000     0.040000000    -4.214000000
H     3.356000000    -0.774000000    -4.506000000
H     3.046000000     0.552000000    -3.845000000
O    -1.970000000    -3.744000000    -6.131000000
H    -2.670000000    -3.094000000    -6.073000000
H    -1.204000000    -3.247000000    -6.416000000
O     0.555000000    -5.528000000     3.141000000
H     0.173000000    -5.626000000     4.013000000
H     0.856000000    -4.620000000     3.112000000
O    -2.566000000    -5.387000000     3.896000000
H    -1.948000000    -5.255000000     4.616000000
H    -2.674000000    -4.518000000     3.511000000
O     5.020000000     1.752000000     2.050000000
H     5.871000000     1.363000000     2.253000000
H     4.587000000     1.839000000     2.899000000
O    -2.855000000     1.767000000    -1.646000000
H    -2.341000000     2.209000000    -2.322000000
H    -2.313000000     1.821000000    -0.859000000
O     5.453000000     0.487000000    -0.473000000
H     4.910000000    -0.298000000    -0.551000000
H     5.253000000     0.831000000     0.398000000
O    -1.327000000    -2.862000000     6.545000000
H    -1.029000000    -2.877000000     7.455000000
H    -0.956000000    -3.656000000     6.159000000
O     1.595000000     2.316000000    -5.661000000
H     1.447000000     1.965000000    -4.783000000
H     1.898000000     1.565000000    -6.171000000
O    -4.379000000    -4.677000000     0.502000000
H    -4.387000000    -3.730000000     0.643000000
H    -4.939000000    -5.027000000     1.195000000
O    -6.465000000     0.016000000     0.940000000
H    -5.570000000     0.333000000     1.064000000
H    -6.884000000     0.143000000     1.791000000
O     2.678000000     4.219000000    -3.049000000
H     2.089000000     4.864000000    -3.441000000
H     2.152000000     3.422000000    -2.987000000
O    -4.096000000    -1.828000000     0.982000000
H    -4.519000000    -1.036000000     1.311000000
H    -4.004000000    -1.678000000     0.041000000
O     3.063000000    -0.259000000     5.562000000
H     2.961000000    -0.782000000     6.357000000
H     2.167000000    -0.041000000     5.302000000
O     2.704000000    -4.173000000    -0.308000000
H     2.480000000    -4.162000000    -1.239000000
H     3.513000000    -3.664000000    -0.251000000
O     2.594000000     4.921000000    -6.230000000
H     2.474000000     4.095000000    -5.762000000
H     3.087000000     4.681000000    -7.015000000
O    -0.823000000    -4.737000000    -3.948000000
H    -1.239000000    -4.098000000    -4.526000000
H    -0.924000000    -5.573000000    -4.403000000
O     0.172000000    -2.823000000    -7.300000000
H     0.821000000    -2.124000000    -7.381000000
H    -0.559000000    -2.536000000    -7.848000000
O    -1.616000000    -6.195000000    -1.879000000
H    -1.147000000    -6.057000000    -1.056000000
H    -1.011000000    -5.887000000    -2.554000000
O     1.780000000    -1.735000000    -4.756000000
H     1.506000000    -2.497000000    -4.246000000
H     1.119000000    -1.069000000    -4.567000000
O    -2.904000000    -1.014000000     5.202000000
H    -2.903000000    -0.178000000     5.668000000
H    -2.444000000    -1.615000000     5.787000000
O    -3.578000000    -2.819000000    -3.741000000
H    -4.448000000    -2.915000000    -4.128000000
H    -3.304000000    -3.715000000    -3.543000000
O    -2.655000000    -6.631000000     1.314000000
H    -3.180000000    -5.883000000     1.027000000
H    -2.388000000    -6.408000000     2.205000000
O    -2.709000000     4.682000000     4.857000000
H    -2.234000000     4.995000000     4.087000000
H    -2.627000000     3.729000000     4.818000000
O     5.745000000     4.213000000     1.058000000
H     5.904000000     4.750000000     1.835000000
H     5.269000000     3.451000000     1.388000000
O     4.705000000    -2.379000000    -2.667000000
H     4.392000000    -2.195000000    -1.782000000
H     4.264000000    -1.731000000    -3.217000000
O     5.958000000     0.882000000    -5.672000000
H     5.114000000     0.569000000    -5.346000000
H     6.035000000     1.770000000    -5.323000000
O    -2.987000000    -2.939000000     3.162000000
H    -3.162000000    -2.553000000     2.304000000
H    -2.883000000    -2.188000000     3.746000000
O     1.338000000     6.563000000    -0.495000000
H     0.917000000     6.436000000    -1.346000000
H     1.513000000     5.676000000    -0.181000000
O    -1.180000000     2.747000000    -3.748000000
H    -0.750000000     2.017000000    -4.194000000
H    -0.704000000     3.523000000    -4.046000000
O     1.764000000    -4.168000000    -3.198000000
H     2.353000000    -4.909000000    -3.338000000
H     0.906000000    -4.488000000    -3.476000000
O    -2.194000000     3.340000000     1.869000000
H    -1.252000000     3.390000000     2.031000000
H    -2.440000000     4.228000000     1.612000000
O     0.777000000     0.898000000     5.134000000
H     0.521000000     0.960000000     6.055000000
H     0.028000000     0.486000000     4.704000000
O     5.247000000     2.868000000    -2.980000000
H     4.829000000     2.016000000    -2.856000000
H     4.519000000     3.487000000    -3.027000000
O     3.194000000    -1.167000000    -0.764000000
H     2.423000000    -0.731000000    -1.128000000
H     2.841000000    -1.774000000    -0.113000000
O    -5.452000000    -2.699000000     4.825000000
H    -4.973000000    -3.504000000     5.022000000
H    -4.770000000    -2.038000000     4.703000000
O    -3.761000000    -1.122000000    -1.692000000
H    -3.544000000    -1.505000000    -2.542000000
H    -3.528000000    -0.197000000    -1.779000000
O    -0.066000000     3.992000000     3.298000000
H    -0.075000000     3.852000000     4.245000000
H    -0.413000000     4.876000000     3.183000000
O     3.656000000    -2.098000000     3.759000000
H     3.369000000    -1.340000000     4.269000000
H     4.270000000    -2.554000000     4.333000000
O     1.919000000     4.749000000     1.377000000
H     2.580000000     4.900000000     2.053000000
H     1.202000000     4.311000000     1.837000000
O    -2.266000000    -0.581000000    -4.637000000
H    -1.407000000    -0.309000000    -4.313000000
H    -2.401000000    -1.449000000    -4.257000000
