158
-3039.54143
C     1.242000000    -0.650000000    -0.473000000
H     2.162000000    -1.166000000    -0.736000000
C     0.663000000    -0.872000000     0.825000000
H     1.205000000    -1.440000000     1.577000000
C    -0.574000000    -0.215000000     1.084000000
H    -1.016000000    -0.400000000     2.031000000
C    -1.112000000     0.667000000     0.137000000
H    -1.992000000     1.267000000     0.353000000
C    -0.576000000     0.768000000    -1.140000000
H    -1.106000000     1.327000000    -1.907000000
C     0.591000000     0.070000000    -1.432000000
C     1.323000000     0.245000000    -2.738000000
O     2.445000000    -0.201000000    -2.981000000
O     0.642000000     0.745000000    -3.656000000
O    -5.612000000     4.619000000     2.359000000
H    -5.393000000     5.495000000     2.042000000
H    -4.901000000     4.063000000     2.037000000
O    -4.439000000    -1.425000000    -3.339000000
H    -4.674000000    -1.074000000    -2.480000000
H    -3.564000000    -1.076000000    -3.509000000
O    -6.287000000     0.870000000     3.005000000
H    -6.183000000     1.468000000     2.265000000
H    -6.717000000     1.396000000     3.680000000
O    -4.294000000    -1.349000000    -0.582000000
H    -4.164000000    -1.360000000     0.366000000
H    -3.659000000    -1.983000000    -0.918000000
O     4.566000000    -0.910000000    -4.416000000
H     4.648000000    -0.122000000    -4.954000000
H     3.755000000    -0.780000000    -3.924000000
O     4.113000000     0.738000000    -6.509000000
H     4.739000000     1.448000000    -6.653000000
H     4.457000000     0.008000000    -7.024000000
O     5.169000000     0.061000000     1.731000000
H     5.495000000    -0.092000000     2.618000000
H     5.157000000    -0.807000000     1.327000000
O    -1.145000000     5.262000000    -4.722000000
H    -1.113000000     5.065000000    -5.658000000
H    -0.834000000     4.462000000    -4.298000000
O    -3.475000000    -4.170000000     4.979000000
H    -2.974000000    -4.191000000     4.164000000
H    -4.214000000    -4.758000000     4.822000000
O     3.238000000     2.200000000     0.672000000
H     3.860000000     2.084000000     1.390000000
H     2.477000000     2.616000000     1.078000000
O    -5.260000000     1.197000000    -0.444000000
H    -5.136000000     0.248000000    -0.471000000
H    -4.575000000     1.512000000     0.145000000
O    -1.705000000    -1.707000000     4.153000000
H    -0.956000000    -2.246000000     4.405000000
H    -1.782000000    -1.060000000     4.854000000
O     0.270000000     3.303000000    -3.336000000
H     1.199000000     3.533000000    -3.332000000
H     0.258000000     2.356000000    -3.473000000
O     0.597000000     6.041000000    -1.317000000
H     0.100000000     5.282000000    -1.623000000
H     1.506000000     5.743000000    -1.303000000
O    -4.427000000    -4.416000000     1.133000000
H    -5.272000000    -4.020000000     0.919000000
H    -3.824000000    -4.060000000     0.481000000
O     4.691000000     0.277000000    -1.069000000
H     3.884000000     0.423000000    -1.563000000
H     4.461000000     0.495000000    -0.166000000
O    -2.217000000    -3.537000000    -0.435000000
H    -1.523000000    -3.512000000     0.223000000
H    -1.757000000    -3.661000000    -1.265000000
O     3.880000000     2.507000000    -2.828000000
H     3.724000000     1.583000000    -3.021000000
H     3.987000000     2.539000000    -1.877000000
O     2.253000000     2.607000000    -6.910000000
H     2.891000000     1.958000000    -6.612000000
H     1.620000000     2.103000000    -7.422000000
O     1.659000000    -0.987000000    -6.024000000
H     1.159000000    -1.585000000    -5.469000000
H     2.195000000    -0.483000000    -5.412000000
O     1.451000000    -2.770000000    -3.989000000
H     1.867000000    -3.551000000    -3.624000000
H     1.955000000    -2.040000000    -3.630000000
O     0.429000000    -3.289000000     5.142000000
H     0.145000000    -3.376000000     6.051000000
H     1.329000000    -2.969000000     5.202000000
O    -2.400000000    -6.036000000     2.460000000
H    -3.038000000    -5.555000000     1.931000000
H    -1.712000000    -5.397000000     2.644000000
O    -0.490000000     2.014000000     3.602000000
H    -0.318000000     1.700000000     4.490000000
H    -1.428000000     1.871000000     3.475000000
O    -3.023000000     1.118000000     3.041000000
H    -3.742000000     1.408000000     3.602000000
H    -3.250000000     0.218000000     2.807000000
O     5.744000000    -3.284000000    -5.011000000
H     5.785000000    -3.581000000    -5.920000000
H     5.217000000    -2.486000000    -5.043000000
O    -6.074000000     3.681000000    -1.214000000
H    -5.574000000     2.867000000    -1.146000000
H    -6.988000000     3.407000000    -1.138000000
O    -0.914000000    -3.639000000     2.205000000
H     0.025000000    -3.763000000     2.342000000
H    -1.086000000    -2.751000000     2.519000000
O    -4.849000000     2.578000000     5.173000000
H    -4.964000000     1.986000000     5.917000000
H    -4.078000000     3.098000000     5.397000000
O     2.733000000     4.435000000    -4.521000000
H     3.179000000     4.111000000    -3.738000000
H     2.717000000     3.685000000    -5.115000000
O    -2.054000000     3.778000000    -1.912000000
H    -1.415000000     3.667000000    -2.616000000
H    -1.525000000     3.881000000    -1.122000000
O    -0.473000000     1.213000000    -5.960000000
H    -0.125000000     1.082000000    -5.078000000
H     0.071000000     0.656000000    -6.517000000
O     3.771000000    -3.953000000    -0.294000000
H     3.682000000    -4.097000000    -1.236000000
H     3.195000000    -4.605000000     0.104000000
O    -3.598000000     3.033000000     1.049000000
H    -2.789000000     3.439000000     0.738000000
H    -3.325000000     2.487000000     1.786000000
O    -1.617000000     3.599000000    -7.159000000
H    -1.118000000     2.861000000    -6.810000000
H    -2.508000000     3.262000000    -7.253000000
O    -3.795000000     6.257000000    -1.316000000
H    -4.425000000     6.342000000    -0.600000000
H    -3.534000000     5.336000000    -1.297000000
O     3.507000000    -4.226000000    -3.044000000
H     4.144000000    -3.846000000    -3.648000000
H     3.504000000    -5.160000000    -3.255000000
O    -0.371000000     0.939000000     6.148000000
H    -1.206000000     0.586000000     6.457000000
H     0.291000000     0.438000000     6.625000000
O     7.030000000     1.512000000    -1.971000000
H     7.570000000     1.278000000    -1.216000000
H     6.190000000     1.083000000    -1.807000000
O    -4.368000000     3.927000000    -3.830000000
H    -5.149000000     3.710000000    -3.321000000
H    -3.647000000     3.858000000    -3.204000000
O     5.786000000    -1.986000000    -0.101000000
H     5.475000000    -1.359000000    -0.755000000
H     5.205000000    -2.741000000    -0.198000000
O    -1.393000000    -3.774000000    -4.299000000
H    -0.849000000    -3.028000000    -4.047000000
H    -0.803000000    -4.345000000    -4.791000000
O    -3.953000000    -1.432000000     2.368000000
H    -3.167000000    -1.746000000     2.814000000
H    -4.677000000    -1.747000000     2.909000000
O    -0.855000000     3.752000000     0.531000000
H    -0.435000000     3.010000000     0.966000000
H    -0.843000000     4.451000000     1.184000000
O     2.840000000    -4.624000000     4.120000000
H     3.245000000    -5.117000000     3.406000000
H     2.932000000    -5.192000000     4.885000000
O     1.728000000     3.346000000     2.600000000
H     2.078000000     3.311000000     3.490000000
H     0.899000000     2.869000000     2.651000000
O    -2.711000000    -0.216000000     6.827000000
H    -3.633000000    -0.408000000     6.659000000
H    -2.561000000    -0.526000000     7.720000000
O    -2.107000000    -0.254000000    -4.281000000
H    -1.394000000     0.066000000    -3.728000000
H    -1.936000000     0.132000000    -5.140000000
