158
-3029.87703
C    -0.205000000    -0.499000000    -1.431000000
H    -0.557000000    -0.807000000    -2.412000000
C    -0.372000000    -1.228000000    -0.235000000
H    -0.688000000    -2.267000000    -0.287000000
C    -0.129000000    -0.649000000     1.034000000
H    -0.453000000    -1.277000000     1.837000000
C     0.351000000     0.648000000     1.146000000
H     0.606000000     1.122000000     2.090000000
C     0.364000000     1.366000000    -0.045000000
H     0.683000000     2.403000000     0.023000000
C     0.201000000     0.805000000    -1.332000000
C     0.434000000     1.660000000    -2.522000000
O     0.125000000     1.234000000    -3.611000000
O     0.579000000     2.870000000    -2.418000000
O     2.891000000     1.179000000     3.501000000
H     3.399000000     1.439000000     4.270000000
H     2.786000000     1.988000000     2.999000000
O    -3.398000000     1.515000000    -4.381000000
H    -3.295000000     2.209000000    -5.032000000
H    -4.281000000     1.176000000    -4.531000000
O    -2.214000000     0.214000000     4.617000000
H    -1.327000000    -0.142000000     4.578000000
H    -2.655000000    -0.315000000     5.282000000
O     4.736000000    -2.793000000     4.717000000
H     4.822000000    -2.260000000     3.927000000
H     4.395000000    -2.190000000     5.378000000
O     0.294000000    -4.484000000     3.754000000
H    -0.436000000    -3.869000000     3.674000000
H     1.055000000    -3.994000000     3.443000000
O     2.362000000    -3.500000000     2.490000000
H     2.448000000    -3.733000000     1.565000000
H     2.838000000    -2.675000000     2.575000000
O     5.713000000     2.782000000    -2.368000000
H     5.020000000     2.127000000    -2.288000000
H     5.494000000     3.266000000    -3.165000000
O     1.396000000     0.997000000     6.440000000
H     2.141000000     1.594000000     6.507000000
H     0.662000000     1.556000000     6.187000000
O     4.589000000     2.239000000     0.399000000
H     3.756000000     2.691000000     0.531000000
H     5.170000000     2.907000000     0.036000000
O    -3.609000000    -3.299000000    -0.731000000
H    -3.156000000    -4.055000000    -0.357000000
H    -3.422000000    -2.583000000    -0.123000000
O    -2.831000000    -1.936000000     7.177000000
H    -3.228000000    -2.138000000     8.024000000
H    -1.897000000    -2.104000000     7.304000000
O     1.263000000    -1.579000000     5.486000000
H     1.697000000    -1.577000000     4.633000000
H     1.394000000    -0.693000000     5.824000000
O    -4.770000000     0.844000000     3.592000000
H    -4.593000000     1.041000000     2.672000000
H    -3.904000000     0.723000000     3.982000000
O     3.362000000     3.697000000     2.777000000
H     2.533000000     3.971000000     3.169000000
H     3.732000000     4.501000000     2.414000000
O     2.913000000     3.853000000    -1.311000000
H     3.033000000     4.561000000    -1.944000000
H     2.090000000     3.437000000    -1.570000000
O    -0.197000000    -2.912000000     7.511000000
H    -0.816000000    -3.500000000     7.079000000
H     0.360000000    -2.589000000     6.803000000
O     0.578000000     6.436000000    -1.108000000
H     1.509000000     6.245000000    -1.225000000
H     0.174000000     6.175000000    -1.936000000
O     3.042000000    -1.679000000    -0.819000000
H     2.428000000    -1.312000000    -0.182000000
H     3.505000000    -2.365000000    -0.337000000
O     2.808000000     1.402000000    -4.714000000
H     1.884000000     1.370000000    -4.470000000
H     3.278000000     1.343000000    -3.883000000
O     1.439000000     3.815000000    -7.357000000
H     0.864000000     3.553000000    -6.637000000
H     2.287000000     3.427000000    -7.138000000
O     3.078000000    -2.585000000    -3.340000000
H     3.529000000    -3.426000000    -3.412000000
H     3.015000000    -2.427000000    -2.398000000
O    -4.602000000    -1.105000000    -2.086000000
H    -4.222000000    -1.929000000    -1.783000000
H    -4.343000000    -1.046000000    -3.006000000
O     1.069000000     6.408000000    -4.323000000
H     0.703000000     7.243000000    -4.031000000
H     0.485000000     6.124000000    -5.026000000
O    -4.486000000    -2.976000000     4.384000000
H    -4.620000000    -2.482000000     5.192000000
H    -5.041000000    -2.537000000     3.740000000
O     0.000000000    -2.621000000    -4.657000000
H    -0.682000000    -1.952000000    -4.715000000
H     0.448000000    -2.434000000    -3.833000000
O     0.189000000    -0.484000000    -7.126000000
H     0.049000000     0.329000000    -7.612000000
H    -0.473000000    -0.467000000    -6.435000000
O    -2.771000000     1.495000000     1.207000000
H    -3.179000000     1.776000000     0.387000000
H    -1.881000000     1.247000000     0.959000000
O     4.003000000    -0.945000000    -5.384000000
H     3.927000000    -1.647000000    -4.738000000
H     3.294000000    -0.341000000    -5.165000000
O    -1.825000000    -2.886000000     3.402000000
H    -2.257000000    -2.259000000     2.821000000
H    -2.503000000    -3.139000000     4.028000000
O     3.363000000     0.683000000    -2.024000000
H     3.055000000     1.217000000    -1.292000000
H     3.361000000    -0.212000000    -1.685000000
O     0.918000000    -6.883000000     2.353000000
H     1.106000000    -7.497000000     3.063000000
H     0.476000000    -6.150000000     2.781000000
O     4.324000000     2.742000000    -6.737000000
H     3.799000000     2.279000000    -6.084000000
H     5.038000000     3.135000000    -6.235000000
O    -1.299000000     4.518000000    -2.787000000
H    -0.558000000     3.917000000    -2.711000000
H    -1.872000000     4.287000000    -2.056000000
O     3.554000000    -0.925000000     2.075000000
H     4.270000000    -0.494000000     1.608000000
H     3.241000000    -0.265000000     2.695000000
O    -0.901000000     2.379000000     6.250000000
H    -1.002000000     2.606000000     7.174000000
H    -1.770000000     2.080000000     5.981000000
O    -3.488000000    -1.523000000     1.605000000
H    -4.425000000    -1.427000000     1.772000000
H    -3.225000000    -0.687000000     1.221000000
O    -0.434000000     3.278000000    -5.228000000
H    -0.642000000     4.027000000    -4.669000000
H    -0.497000000     2.521000000    -4.645000000
O    -1.932000000     2.911000000     3.569000000
H    -2.210000000     2.011000000     3.740000000
H    -2.267000000     3.104000000     2.693000000
O     3.054000000     6.555000000    -2.413000000
H     3.713000000     7.196000000    -2.680000000
H     2.451000000     6.509000000    -3.156000000
O     1.033000000     5.826000000     1.753000000
H     0.594000000     4.983000000     1.869000000
H     0.660000000     6.181000000     0.946000000
O     3.963000000    -5.237000000     4.334000000
H     4.335000000    -4.435000000     4.700000000
H     3.573000000    -4.963000000     3.504000000
O    -1.009000000     2.014000000    -8.080000000
H    -0.842000000     2.415000000    -7.227000000
H    -0.918000000     2.733000000    -8.705000000
O    -3.168000000    -5.248000000     1.336000000
H    -4.009000000    -5.609000000     1.616000000
H    -2.880000000    -4.711000000     2.074000000
O    -3.198000000     4.838000000    -0.577000000
H    -3.516000000     3.940000000    -0.671000000
H    -3.152000000     4.978000000     0.369000000
O    -4.229000000     1.804000000    -0.835000000
H    -4.479000000     1.316000000    -1.620000000
H    -5.058000000     1.985000000    -0.392000000
O     0.461000000     3.890000000     3.645000000
H     0.836000000     3.953000000     4.524000000
H    -0.414000000     3.527000000     3.783000000
O    -1.802000000    -6.213000000     4.308000000
H    -1.405000000    -7.067000000     4.481000000
H    -1.113000000    -5.713000000     3.869000000
O    -1.486000000    -0.445000000    -4.869000000
H    -0.938000000     0.215000000    -4.444000000
H    -2.381000000    -0.197000000    -4.640000000
