158
-3030.84687
C     1.071000000    -0.209000000    -1.059000000
H     1.930000000    -0.415000000    -1.691000000
C     1.143000000    -0.489000000     0.336000000
H     2.059000000    -0.899000000     0.754000000
C     0.068000000    -0.229000000     1.221000000
H     0.217000000    -0.461000000     2.193000000
C    -1.066000000     0.365000000     0.723000000
H    -1.876000000     0.551000000     1.423000000
C    -1.134000000     0.591000000    -0.668000000
H    -2.040000000     1.066000000    -1.038000000
C    -0.088000000     0.295000000    -1.569000000
C    -0.286000000     0.349000000    -3.028000000
O     0.659000000     0.129000000    -3.812000000
O    -1.356000000     0.619000000    -3.507000000
O     3.024000000    -3.048000000     1.514000000
H     3.133000000    -3.987000000     1.660000000
H     2.161000000    -2.847000000     1.878000000
O    -3.840000000    -0.387000000    -3.125000000
H    -4.046000000    -0.745000000    -2.261000000
H    -2.914000000    -0.150000000    -3.072000000
O     0.583000000    -3.099000000    -6.901000000
H     1.283000000    -3.660000000    -6.565000000
H     0.413000000    -3.431000000    -7.782000000
O    -4.673000000    -1.757000000    -0.642000000
H    -5.028000000    -1.176000000     0.031000000
H    -4.330000000    -2.506000000    -0.156000000
O     1.010000000    -0.280000000    -7.451000000
H     0.796000000    -0.532000000    -8.349000000
H     1.094000000    -1.110000000    -6.982000000
O     1.758000000    -2.365000000    -3.975000000
H     2.296000000    -2.305000000    -4.764000000
H     1.464000000    -1.468000000    -3.816000000
O    -1.035000000     5.025000000    -4.909000000
H    -1.350000000     4.133000000    -5.055000000
H    -0.184000000     4.912000000    -4.485000000
O    -2.348000000    -4.768000000     3.165000000
H    -2.890000000    -5.345000000     3.704000000
H    -2.762000000    -4.789000000     2.302000000
O     4.718000000     2.964000000     2.723000000
H     5.539000000     2.474000000     2.773000000
H     4.067000000     2.383000000     3.117000000
O    -6.352000000    -0.692000000     2.241000000
H    -6.471000000     0.255000000     2.303000000
H    -5.496000000    -0.853000000     2.637000000
O    -1.387000000    -2.185000000     3.491000000
H    -0.454000000    -2.248000000     3.285000000
H    -1.750000000    -3.027000000     3.216000000
O     5.573000000    -2.270000000     0.317000000
H     4.907000000    -2.899000000     0.594000000
H     5.140000000    -1.418000000     0.383000000
O    -5.228000000     1.675000000     1.208000000
H    -4.738000000     2.446000000     0.921000000
H    -5.832000000     1.495000000     0.488000000
O    -5.338000000    -0.079000000    -5.388000000
H    -4.645000000    -0.196000000    -4.738000000
H    -4.899000000     0.321000000    -6.138000000
O    -0.717000000     3.717000000    -1.479000000
H    -0.055000000     4.047000000    -2.086000000
H    -0.230000000     3.159000000    -0.873000000
O     0.760000000    -4.500000000     5.333000000
H     0.829000000    -4.530000000     6.287000000
H     1.573000000    -4.898000000     5.022000000
O     1.831000000     3.586000000    -7.376000000
H     1.623000000     3.183000000    -6.533000000
H     2.552000000     4.186000000    -7.183000000
O     4.114000000     2.247000000    -1.249000000
H     4.363000000     2.176000000    -2.170000000
H     3.544000000     3.015000000    -1.213000000
O    -2.997000000    -3.590000000    -5.581000000
H    -2.996000000    -3.977000000    -4.705000000
H    -2.272000000    -2.965000000    -5.567000000
O     0.869000000     0.279000000     4.685000000
H     1.385000000    -0.039000000     5.426000000
H     0.270000000    -0.441000000     4.485000000
O     3.188000000     1.840000000    -3.940000000
H     2.418000000     1.280000000    -4.036000000
H     3.637000000     1.777000000    -4.782000000
O    -1.687000000     1.973000000    -7.714000000
H    -0.733000000     1.902000000    -7.688000000
H    -1.993000000     1.069000000    -7.784000000
O     0.747000000     1.700000000    -5.759000000
H     0.520000000     1.263000000    -4.938000000
H     0.919000000     0.985000000    -6.372000000
O     3.343000000    -0.064000000     3.053000000
H     3.765000000    -0.637000000     3.693000000
H     2.461000000     0.072000000     3.397000000
O    -3.095000000     3.256000000     0.016000000
H    -2.334000000     2.677000000     0.046000000
H    -3.308000000     3.323000000    -0.914000000
O     0.170000000    -4.278000000    -2.461000000
H     0.434000000    -3.614000000    -3.099000000
H    -0.355000000    -4.899000000    -2.965000000
O     1.238000000    -2.589000000     3.660000000
H     0.903000000    -3.338000000     4.153000000
H     1.797000000    -2.123000000     4.282000000
O    -0.327000000    -5.748000000     0.980000000
H    -0.474000000    -4.808000000     0.877000000
H     0.266000000    -5.977000000     0.263000000
O    -0.883000000     3.139000000     2.560000000
H    -1.107000000     4.012000000     2.237000000
H    -1.542000000     2.955000000     3.229000000
O    -3.946000000    -0.658000000     3.488000000
H    -3.211000000    -1.150000000     3.122000000
H    -3.977000000    -0.921000000     4.408000000
O     3.767000000    -1.694000000    -5.708000000
H     4.162000000    -1.486000000    -4.861000000
H     4.509000000    -1.923000000    -6.268000000
O     4.384000000     0.013000000     0.474000000
H     3.962000000     0.865000000     0.366000000
H     4.157000000    -0.255000000     1.365000000
O     1.324000000     2.909000000     4.337000000
H     1.129000000     1.988000000     4.510000000
H     0.792000000     3.127000000     3.572000000
O    -0.821000000    -3.268000000     0.302000000
H    -0.448000000    -2.505000000     0.743000000
H    -0.382000000    -3.292000000    -0.548000000
O     1.553000000     3.930000000    -2.976000000
H     2.359000000     3.514000000    -3.282000000
H     1.851000000     4.665000000    -2.439000000
O    -3.521000000     2.244000000     3.347000000
H    -3.941000000     1.585000000     2.794000000
H    -3.955000000     3.065000000     3.113000000
O    -2.153000000     2.497000000    -5.106000000
H    -1.901000000     1.726000000    -4.598000000
H    -2.001000000     2.244000000    -6.017000000
O     3.316000000    -2.722000000    -1.813000000
H     2.694000000    -2.734000000    -1.086000000
H     2.776000000    -2.563000000    -2.587000000
O    -4.615000000     3.269000000    -6.101000000
H    -4.575000000     4.107000000    -6.562000000
H    -3.717000000     3.113000000    -5.807000000
O    -2.767000000     2.432000000     6.214000000
H    -3.440000000     2.098000000     6.806000000
H    -3.090000000     2.218000000     5.338000000
O    -4.838000000     2.714000000    -2.869000000
H    -4.341000000     2.620000000    -3.682000000
H    -4.768000000     1.859000000    -2.445000000
O    -3.150000000    -0.581000000    -7.562000000
H    -2.462000000    -0.878000000    -6.967000000
H    -2.919000000    -0.965000000    -8.407000000
O     5.465000000    -1.464000000    -2.813000000
H     5.393000000    -0.592000000    -2.425000000
H     4.817000000    -1.989000000    -2.343000000
O    -1.414000000     5.375000000     0.731000000
H    -0.911000000     5.095000000    -0.035000000
H    -2.199000000     4.829000000     0.714000000
O     2.475000000    -1.483000000     6.183000000
H     3.196000000    -0.885000000     6.381000000
H     2.686000000    -2.281000000     6.666000000
O     0.991000000     2.636000000     0.738000000
H     0.347000000     2.649000000     1.445000000
H     1.166000000     1.706000000     0.590000000
O    -2.739000000    -2.254000000     6.236000000
H    -2.079000000    -2.357000000     6.922000000
H    -2.283000000    -1.794000000     5.531000000
O    -1.275000000    -1.665000000    -5.388000000
H    -1.188000000    -1.047000000    -4.662000000
H    -0.374000000    -1.870000000    -5.638000000
