158
-3003.08352
C     0.948000000    -0.593000000    -1.014000000
H     1.636000000    -1.065000000    -1.711000000
C     0.295000000    -1.295000000     0.013000000
H     0.460000000    -2.369000000     0.043000000
C    -0.530000000    -0.667000000     0.943000000
H    -0.943000000    -1.160000000     1.832000000
C    -0.792000000     0.688000000     0.770000000
H    -1.438000000     1.251000000     1.439000000
C    -0.246000000     1.358000000    -0.336000000
H    -0.504000000     2.405000000    -0.478000000
C     0.690000000     0.783000000    -1.222000000
C     1.359000000     1.591000000    -2.337000000
O     2.084000000     1.072000000    -3.157000000
O     1.057000000     2.804000000    -2.437000000
O     0.483000000    -4.244000000     2.643000000
H     1.291000000    -3.856000000     2.306000000
H     0.322000000    -4.995000000     2.071000000
O    -3.082000000     6.964000000    -1.269000000
H    -3.271000000     7.006000000    -2.207000000
H    -2.940000000     6.033000000    -1.096000000
O     2.157000000    -1.272000000     3.364000000
H     1.831000000    -0.395000000     3.162000000
H     1.390000000    -1.742000000     3.692000000
O     2.388000000    -3.957000000    -2.531000000
H     1.664000000    -3.955000000    -3.157000000
H     2.731000000    -4.850000000    -2.565000000
O     1.280000000     6.263000000     0.267000000
H     2.080000000     6.247000000     0.792000000
H     1.227000000     7.160000000    -0.062000000
O     0.198000000    -6.441000000     5.074000000
H    -0.650000000    -6.641000000     5.472000000
H     0.162000000    -5.502000000     4.892000000
O    -1.960000000    -1.469000000    -4.263000000
H    -1.934000000    -1.106000000    -3.378000000
H    -2.784000000    -1.954000000    -4.299000000
O     4.808000000     0.519000000    -3.183000000
H     4.938000000    -0.392000000    -2.921000000
H     3.858000000     0.627000000    -3.213000000
O     6.153000000     2.797000000    -3.366000000
H     5.425000000     2.190000000    -3.232000000
H     5.896000000     3.313000000    -4.130000000
O     5.908000000     0.550000000    -5.963000000
H     5.468000000     0.718000000    -5.130000000
H     5.909000000    -0.404000000    -6.045000000
O     0.079000000     1.547000000    -7.519000000
H     0.161000000     0.759000000    -8.055000000
H     0.077000000     1.225000000    -6.618000000
O    -3.200000000    -3.375000000    -0.474000000
H    -2.961000000    -4.117000000    -1.031000000
H    -3.478000000    -3.774000000     0.350000000
O    -5.147000000    -3.439000000     2.107000000
H    -5.698000000    -3.513000000     1.328000000
H    -5.542000000    -2.728000000     2.613000000
O    -3.584000000    -4.708000000     4.277000000
H    -2.766000000    -4.217000000     4.197000000
H    -4.121000000    -4.398000000     3.548000000
O    -1.838000000    -3.174000000     7.535000000
H    -0.970000000    -3.122000000     7.937000000
H    -1.666000000    -3.410000000     6.624000000
O     2.331000000     4.931000000    -1.973000000
H     1.931000000     5.300000000    -1.186000000
H     2.013000000     4.029000000    -2.003000000
O    -4.809000000     2.756000000     3.898000000
H    -5.562000000     2.169000000     3.967000000
H    -4.211000000     2.461000000     4.584000000
O    -2.646000000     1.334000000    -4.490000000
H    -1.981000000     1.459000000    -5.167000000
H    -2.804000000     0.390000000    -4.482000000
O     3.155000000     2.970000000     0.845000000
H     3.930000000     3.414000000     0.501000000
H     3.353000000     2.038000000     0.755000000
O     1.927000000    -4.010000000     6.565000000
H     2.130000000    -4.070000000     7.498000000
H     1.573000000    -3.128000000     6.452000000
O     3.457000000     4.784000000    -4.560000000
H     2.675000000     4.475000000    -5.016000000
H     3.280000000     4.609000000    -3.636000000
O    -1.393000000    -5.439000000     1.099000000
H    -2.055000000    -6.104000000     1.288000000
H    -1.428000000    -5.329000000     0.149000000
O     0.895000000     1.202000000     6.187000000
H     1.384000000     2.025000000     6.209000000
H     0.710000000     1.058000000     5.258000000
O     5.601000000    -3.533000000    -4.030000000
H     5.167000000    -3.021000000    -3.348000000
H     6.307000000    -3.990000000    -3.574000000
O    -1.871000000    -5.677000000    -1.691000000
H    -2.399000000    -6.011000000    -2.416000000
H    -1.231000000    -6.369000000    -1.522000000
O     0.895000000     3.391000000    -5.105000000
H     0.969000000     3.399000000    -4.151000000
H     0.779000000     2.468000000    -5.329000000
O    -0.893000000     6.093000000    -5.246000000
H    -0.085000000     6.429000000    -4.858000000
H    -0.638000000     5.815000000    -6.126000000
O    -2.380000000    -1.137000000    -1.616000000
H    -1.435000000    -1.048000000    -1.491000000
H    -2.583000000    -2.013000000    -1.288000000
O     0.139000000     0.750000000    -4.928000000
H    -0.266000000    -0.038000000    -4.566000000
H     0.949000000     0.854000000    -4.428000000
O     0.355000000    -4.470000000    -4.371000000
H    -0.094000000    -3.700000000    -4.718000000
H     0.836000000    -4.825000000    -5.119000000
O     4.300000000    -2.316000000    -2.049000000
H     4.323000000    -2.107000000    -1.115000000
H     3.554000000    -2.908000000    -2.144000000
O     5.739000000     3.992000000    -0.589000000
H     6.206000000     4.755000000    -0.929000000
H     5.308000000     3.614000000    -1.356000000
O    -3.719000000     1.901000000    -1.124000000
H    -3.716000000     1.276000000    -1.849000000
H    -3.630000000     1.359000000    -0.341000000
O    -1.162000000    -3.625000000     4.632000000
H    -0.615000000    -3.727000000     3.853000000
H    -0.844000000    -2.822000000     5.044000000
O     1.407000000     4.044000000     2.749000000
H     1.685000000     3.924000000     1.841000000
H     0.679000000     4.664000000     2.697000000
O     3.953000000    -3.594000000     1.621000000
H     3.845000000    -3.241000000     2.505000000
H     3.963000000    -2.822000000     1.055000000
O    -5.022000000    -1.142000000    -0.393000000
H    -4.318000000    -1.487000000    -0.942000000
H    -5.170000000    -1.823000000     0.263000000
O    -1.105000000     5.422000000     1.393000000
H    -1.487000000     4.996000000     0.626000000
H    -0.272000000     5.776000000     1.082000000
O    -2.555000000     4.303000000    -0.877000000
H    -1.897000000     4.192000000    -1.563000000
H    -3.116000000     3.531000000    -0.956000000
O    -4.981000000     4.340000000     1.628000000
H    -4.210000000     4.903000000     1.560000000
H    -4.815000000     3.799000000     2.401000000
O    -4.604000000    -0.693000000     5.989000000
H    -4.850000000     0.209000000     6.194000000
H    -4.343000000    -0.667000000     5.068000000
O    -2.052000000    -0.043000000     7.199000000
H    -2.168000000    -0.006000000     8.149000000
H    -2.918000000    -0.271000000     6.861000000
O    -1.369000000     3.592000000    -3.476000000
H    -1.582000000     2.671000000    -3.627000000
H    -0.470000000     3.580000000    -3.150000000
O     4.502000000    -0.970000000     0.238000000
H     5.149000000    -0.618000000     0.849000000
H     3.660000000    -0.818000000     0.668000000
O    -1.935000000     1.267000000     4.683000000
H    -1.878000000     1.044000000     5.612000000
H    -1.791000000     2.213000000     4.653000000
O    -3.729000000    -0.372000000     3.246000000
H    -3.546000000    -0.875000000     2.452000000
H    -2.912000000     0.092000000     3.428000000
O     1.755000000     1.303000000     3.151000000
H     2.344000000     1.876000000     2.660000000
H     0.918000000     1.767000000     3.155000000
O    -0.076000000    -1.420000000     5.621000000
H    -0.944000000    -1.243000000     5.983000000
H     0.473000000    -0.711000000     5.958000000
