158
-3018.51836
C     0.629000000    -0.504000000    -1.219000000
H     1.142000000    -1.022000000    -2.025000000
C     0.273000000    -1.207000000    -0.108000000
H     0.577000000    -2.250000000    -0.158000000
C    -0.278000000    -0.644000000     1.025000000
H    -0.512000000    -1.258000000     1.942000000
C    -0.651000000     0.662000000     0.983000000
H    -1.111000000     1.132000000     1.849000000
C    -0.424000000     1.386000000    -0.218000000
H    -0.728000000     2.430000000    -0.213000000
C     0.349000000     0.854000000    -1.324000000
C     0.707000000     1.684000000    -2.563000000
O     1.246000000     1.172000000    -3.497000000
O     0.773000000     2.884000000    -2.441000000
O     0.579000000    -3.880000000     2.151000000
H     1.165000000    -3.996000000     1.403000000
H    -0.299000000    -3.891000000     1.771000000
O     3.847000000    -2.697000000     4.769000000
H     2.971000000    -2.908000000     4.444000000
H     4.296000000    -3.541000000     4.813000000
O    -1.679000000     2.703000000    -6.242000000
H    -1.088000000     3.233000000    -5.706000000
H    -1.258000000     1.844000000    -6.284000000
O     3.433000000    -4.527000000    -2.394000000
H     2.938000000    -5.319000000    -2.185000000
H     4.018000000    -4.791000000    -3.104000000
O     1.522000000     6.399000000    -0.206000000
H     1.955000000     6.579000000     0.628000000
H     1.635000000     7.204000000    -0.713000000
O     3.399000000    -0.459000000    -7.191000000
H     4.249000000    -0.899000000    -7.209000000
H     3.572000000     0.378000000    -6.761000000
O     1.378000000    -6.442000000     4.649000000
H     1.613000000    -6.761000000     3.778000000
H     1.059000000    -5.552000000     4.500000000
O    -5.071000000     0.445000000    -1.649000000
H    -5.362000000     0.218000000    -0.766000000
H    -4.226000000     0.005000000    -1.743000000
O    -0.979000000    -1.704000000    -4.579000000
H    -1.766000000    -2.147000000    -4.261000000
H    -0.319000000    -1.878000000    -3.908000000
O     3.026000000    -5.408000000     0.353000000
H     3.149000000    -5.288000000    -0.588000000
H     3.690000000    -4.849000000     0.755000000
O     4.139000000     0.581000000    -3.950000000
H     4.214000000    -0.285000000    -3.548000000
H     3.278000000     0.897000000    -3.677000000
O     5.072000000     2.999000000    -1.918000000
H     5.015000000     2.043000000    -1.931000000
H     4.741000000     3.270000000    -2.775000000
O     6.049000000     1.220000000    -5.956000000
H     5.311000000     1.037000000    -5.375000000
H     6.406000000     0.358000000    -6.169000000
O    -2.634000000    -3.559000000    -1.221000000
H    -2.067000000    -3.995000000    -0.585000000
H    -3.519000000    -3.693000000    -0.884000000
O    -4.790000000    -3.630000000     0.674000000
H    -5.738000000    -3.630000000     0.808000000
H    -4.529000000    -2.719000000     0.808000000
O    -3.104000000    -4.513000000     2.963000000
H    -2.812000000    -3.607000000     3.067000000
H    -3.334000000    -4.585000000     2.036000000
O     2.996000000    -0.237000000     5.923000000
H     2.881000000     0.178000000     5.068000000
H     2.917000000    -1.175000000     5.747000000
O     2.451000000     4.816000000    -2.612000000
H     2.530000000     5.151000000    -1.719000000
H     1.796000000     4.121000000    -2.549000000
O    -3.937000000     3.130000000     3.858000000
H    -4.566000000     2.473000000     3.562000000
H    -3.372000000     2.661000000     4.472000000
O     3.363000000     3.802000000     0.121000000
H     3.989000000     4.286000000     0.661000000
H     3.848000000     3.590000000    -0.676000000
O     3.318000000     5.206000000    -5.137000000
H     2.997000000     4.370000000    -5.477000000
H     3.185000000     5.146000000    -4.191000000
O    -1.456000000    -5.575000000     0.034000000
H    -1.633000000    -6.511000000     0.132000000
H    -1.054000000    -5.497000000    -0.832000000
O     1.454000000     0.023000000     3.493000000
H     1.139000000     0.860000000     3.834000000
H     1.503000000     0.155000000     2.546000000
O    -1.000000000    -5.878000000    -2.513000000
H    -0.547000000    -6.410000000    -3.167000000
H    -1.909000000    -6.178000000    -2.548000000
O     2.515000000     2.802000000    -5.789000000
H     2.493000000     1.921000000    -5.417000000
H     1.919000000     2.761000000    -6.537000000
O    -1.588000000     6.160000000    -4.334000000
H    -1.109000000     6.944000000    -4.600000000
H    -0.913000000     5.490000000    -4.229000000
O    -2.437000000    -0.693000000    -1.790000000
H    -1.548000000    -0.342000000    -1.846000000
H    -2.316000000    -1.618000000    -1.575000000
O    -1.591000000    -6.576000000     4.162000000
H    -2.157000000    -5.886000000     3.815000000
H    -1.523000000    -6.382000000     5.096000000
O    -0.263000000     0.437000000    -5.738000000
H    -0.528000000    -0.401000000    -5.360000000
H     0.402000000     0.772000000    -5.136000000
O     0.442000000     2.580000000     3.897000000
H     0.699000000     3.116000000     3.147000000
H     0.363000000     3.203000000     4.620000000
O     4.450000000    -1.990000000    -2.874000000
H     5.224000000    -2.125000000    -2.328000000
H     3.798000000    -2.595000000    -2.520000000
O    -4.882000000     3.305000000    -1.106000000
H    -5.165000000     2.443000000    -0.802000000
H    -5.687000000     3.822000000    -1.144000000
O     1.112000000    -3.586000000     4.711000000
H     0.928000000    -3.574000000     3.771000000
H     0.474000000    -2.980000000     5.088000000
O     0.929000000     3.997000000     1.526000000
H     1.794000000     4.049000000     1.119000000
H     0.564000000     4.876000000     1.426000000
O    -1.864000000     1.968000000     5.552000000
H    -1.191000000     2.096000000     4.883000000
H    -1.435000000     1.438000000     6.224000000
O     0.264000000     4.194000000    -4.698000000
H     1.216000000     4.107000000    -4.642000000
H    -0.067000000     3.664000000    -3.973000000
O     4.581000000    -3.953000000     2.090000000
H     4.760000000    -4.040000000     3.026000000
H     4.275000000    -3.052000000     1.988000000
O    -2.781000000     2.409000000    -3.200000000
H    -3.353000000     2.730000000    -2.504000000
H    -3.230000000     1.635000000    -3.541000000
O    -2.251000000     4.848000000     2.956000000
H    -2.959000000     4.274000000     3.249000000
H    -2.316000000     4.840000000     2.001000000
O    -2.786000000     4.941000000     0.410000000
H    -1.995000000     5.022000000    -0.122000000
H    -3.422000000     4.518000000    -0.167000000
O     0.936000000     5.708000000    -6.688000000
H     0.495000000     5.145000000    -6.053000000
H     1.856000000     5.695000000    -6.423000000
O    -4.118000000    -0.339000000     6.320000000
H    -5.002000000    -0.173000000     6.647000000
H    -3.614000000     0.428000000     6.591000000
O    -0.646000000     4.788000000    -1.247000000
H    -0.021000000     4.093000000    -1.453000000
H    -0.103000000     5.528000000    -0.976000000
O     4.300000000    -1.373000000     1.573000000
H     4.865000000    -0.762000000     2.046000000
H     3.733000000    -0.814000000     1.042000000
O    -2.710000000    -1.799000000     3.742000000
H    -1.846000000    -1.707000000     4.142000000
H    -3.318000000    -1.475000000     4.406000000
O    -3.513000000    -1.043000000     1.495000000
H    -2.785000000    -0.620000000     1.039000000
H    -3.273000000    -1.000000000     2.421000000
O     2.407000000     1.179000000     1.143000000
H     2.707000000     2.080000000     1.027000000
H     1.572000000     1.143000000     0.675000000
O    -0.629000000    -1.540000000     5.484000000
H    -0.598000000    -1.113000000     6.340000000
H    -0.069000000    -1.001000000     4.926000000
