158
-3033.56993
C     1.289000000     0.157000000    -0.578000000
H     2.257000000     0.310000000    -1.048000000
C     0.994000000    -0.796000000     0.327000000
H     1.708000000    -1.561000000     0.620000000
C    -0.267000000    -0.820000000     0.852000000
H    -0.547000000    -1.629000000     1.538000000
C    -1.149000000     0.165000000     0.551000000
H    -2.136000000     0.103000000     1.002000000
C    -0.873000000     1.049000000    -0.469000000
H    -1.658000000     1.730000000    -0.787000000
C     0.335000000     1.044000000    -1.125000000
C     0.635000000     2.040000000    -2.227000000
O     1.737000000     2.104000000    -2.683000000
O    -0.195000000     2.830000000    -2.568000000
O    -1.182000000    -3.348000000     3.870000000
H    -1.985000000    -3.265000000     3.356000000
H    -1.404000000    -2.973000000     4.723000000
O     3.339000000    -1.643000000     2.442000000
H     2.842000000    -2.104000000     3.118000000
H     4.161000000    -2.127000000     2.376000000
O    -1.745000000    -0.633000000    -2.993000000
H    -2.232000000    -1.046000000    -2.280000000
H    -0.907000000    -1.094000000    -3.010000000
O    -0.079000000    -6.227000000     2.471000000
H    -0.925000000    -6.366000000     2.895000000
H    -0.291000000    -5.779000000     1.652000000
O    -5.048000000     0.471000000    -0.010000000
H    -5.604000000     0.162000000     0.706000000
H    -4.610000000    -0.318000000    -0.330000000
O    -0.850000000    -3.743000000    -2.349000000
H    -1.256000000    -4.348000000    -2.970000000
H    -0.341000000    -3.145000000    -2.897000000
O     2.943000000    -4.180000000    -0.075000000
H     2.711000000    -3.380000000     0.397000000
H     2.166000000    -4.385000000    -0.595000000
O     2.431000000    -0.073000000    -4.027000000
H     3.286000000    -0.242000000    -3.631000000
H     2.163000000     0.772000000    -3.666000000
O     3.778000000     3.762000000    -2.410000000
H     3.185000000     3.044000000    -2.628000000
H     3.213000000     4.534000000    -2.368000000
O     4.918000000     3.888000000    -4.972000000
H     5.509000000     4.621000000    -4.799000000
H     4.578000000     3.645000000    -4.111000000
O    -3.104000000    -3.690000000     1.853000000
H    -2.261000000    -4.087000000     1.636000000
H    -3.747000000    -4.371000000     1.657000000
O    -4.250000000    -4.384000000     4.465000000
H    -4.047000000    -3.533000000     4.852000000
H    -4.534000000    -4.180000000     3.574000000
O    -6.342000000     0.096000000     2.302000000
H    -6.442000000     0.820000000     2.919000000
H    -5.592000000    -0.399000000     2.632000000
O     2.765000000     2.381000000    -6.287000000
H     3.642000000     2.719000000    -6.107000000
H     2.240000000     2.669000000    -5.540000000
O     2.129000000    -1.736000000     6.776000000
H     1.883000000    -1.003000000     6.212000000
H     2.951000000    -2.058000000     6.406000000
O     0.632000000     5.998000000    -2.205000000
H     0.284000000     5.700000000    -1.364000000
H     0.840000000     5.192000000    -2.677000000
O    -4.156000000     3.235000000     3.701000000
H    -5.062000000     3.191000000     3.395000000
H    -3.757000000     2.423000000     3.388000000
O    -0.051000000     6.270000000    -5.777000000
H    -0.653000000     5.551000000    -5.589000000
H    -0.297000000     6.957000000    -5.157000000
O    -2.891000000     1.386000000    -6.910000000
H    -2.255000000     1.604000000    -6.229000000
H    -2.616000000     0.525000000    -7.226000000
O     2.010000000     3.405000000     0.774000000
H     2.512000000     4.089000000     1.216000000
H     2.673000000     2.818000000     0.410000000
O    -1.059000000    -4.821000000     0.214000000
H    -1.118000000    -5.741000000    -0.046000000
H    -0.815000000    -4.360000000    -0.589000000
O     1.376000000     0.490000000     5.600000000
H     0.548000000     0.849000000     5.919000000
H     1.359000000     0.652000000     4.657000000
O     1.470000000     4.113000000    -4.531000000
H     0.991000000     3.494000000    -3.981000000
H     0.795000000     4.531000000    -5.066000000
O    -3.918000000     6.070000000    -1.401000000
H    -3.667000000     6.554000000    -2.187000000
H    -3.570000000     5.189000000    -1.541000000
O    -3.041000000    -2.071000000    -0.730000000
H    -2.090000000    -1.976000000    -0.675000000
H    -3.270000000    -2.625000000     0.016000000
O    -0.688000000     2.408000000     2.599000000
H    -0.701000000     2.842000000     1.746000000
H    -1.033000000     3.062000000     3.206000000
O     0.662000000    -2.081000000    -3.912000000
H     1.132000000    -2.901000000    -4.066000000
H     1.349000000    -1.415000000    -3.873000000
O     5.483000000    -3.624000000     2.125000000
H     5.865000000    -4.414000000     2.507000000
H     6.208000000    -3.211000000     1.656000000
O    -2.420000000     0.634000000     3.452000000
H    -2.331000000     0.020000000     2.723000000
H    -1.869000000     1.377000000     3.208000000
O     4.920000000    -0.893000000    -2.569000000
H     4.472000000    -1.031000000    -1.734000000
H     5.850000000    -0.885000000    -2.344000000
O     4.319000000     1.757000000     2.987000000
H     3.384000000     1.563000000     3.057000000
H     4.752000000     0.962000000     3.298000000
O     5.707000000     4.394000000    -0.515000000
H     5.909000000     3.670000000     0.078000000
H     5.217000000     3.988000000    -1.230000000
O    -5.474000000     3.009000000     1.144000000
H    -6.352000000     3.224000000     0.828000000
H    -5.338000000     2.101000000     0.872000000
O     1.414000000    -3.674000000     3.426000000
H     0.473000000    -3.502000000     3.476000000
H     1.487000000    -4.439000000     2.856000000
O    -0.288000000     4.892000000     0.478000000
H     0.560000000     4.548000000     0.758000000
H    -0.232000000     5.833000000     0.646000000
O    -1.682000000     1.618000000    -4.357000000
H    -1.214000000     2.000000000    -3.615000000
H    -1.812000000     0.702000000    -4.113000000
O     4.619000000    -0.725000000     0.073000000
H     5.403000000    -1.274000000     0.098000000
H     4.056000000    -1.079000000     0.762000000
O    -4.345000000     2.742000000    -2.313000000
H    -4.270000000     1.906000000    -1.852000000
H    -3.654000000     3.286000000    -1.937000000
O    -4.345000000     5.537000000     1.760000000
H    -3.586000000     5.393000000     1.195000000
H    -4.876000000     4.748000000     1.654000000
O    -1.404000000     3.915000000    -5.732000000
H    -1.764000000     3.180000000    -5.236000000
H    -0.773000000     3.514000000    -6.330000000
O    -4.702000000     2.483000000    -5.153000000
H    -4.009000000     1.896000000    -5.459000000
H    -4.399000000     2.784000000    -4.296000000
O    -2.093000000     4.043000000    -1.354000000
H    -1.629000000     3.632000000    -2.084000000
H    -1.398000000     4.332000000    -0.762000000
O     5.108000000    -5.555000000    -0.812000000
H     5.339000000    -5.305000000    -1.707000000
H     4.409000000    -4.949000000    -0.567000000
O     5.327000000     1.854000000     0.401000000
H     4.957000000     1.759000000     1.278000000
H     5.268000000     0.978000000     0.020000000
O    -3.239000000    -1.989000000     5.692000000
H    -2.514000000    -2.112000000     6.304000000
H    -3.747000000    -1.268000000     6.065000000
O    -4.156000000    -1.508000000     3.009000000
H    -3.818000000    -2.293000000     2.579000000
H    -3.847000000    -1.578000000     3.912000000
O     1.802000000     0.822000000     3.023000000
H     1.195000000     1.449000000     2.632000000
H     1.732000000     0.044000000     2.470000000
O    -0.754000000    -1.885000000     6.757000000
H    -0.908000000    -0.940000000     6.768000000
H     0.197000000    -1.973000000     6.819000000
