158
-3036.95551
C     1.327000000    -0.317000000    -0.486000000
H     2.321000000    -0.617000000    -0.805000000
C     0.866000000    -0.571000000     0.798000000
H     1.450000000    -1.168000000     1.494000000
C    -0.441000000    -0.192000000     1.177000000
H    -0.782000000    -0.458000000     2.193000000
C    -1.193000000     0.455000000     0.216000000
H    -2.182000000     0.850000000     0.437000000
C    -0.677000000     0.833000000    -1.027000000
H    -1.368000000     1.331000000    -1.703000000
C     0.623000000     0.414000000    -1.437000000
C     1.110000000     0.654000000    -2.823000000
O     2.155000000     0.160000000    -3.199000000
O     0.466000000     1.285000000    -3.661000000
O    -5.761000000     0.525000000     6.371000000
H    -5.028000000     0.747000000     5.797000000
H    -6.073000000     1.369000000     6.698000000
O     3.350000000    -2.592000000     3.979000000
H     3.605000000    -2.219000000     3.136000000
H     2.589000000    -2.079000000     4.248000000
O     1.325000000     0.652000000    -7.828000000
H     1.096000000     0.598000000    -8.756000000
H     1.156000000    -0.227000000    -7.488000000
O    -5.105000000    -0.194000000     1.665000000
H    -5.870000000    -0.196000000     2.241000000
H    -5.417000000     0.211000000     0.855000000
O     2.877000000     5.355000000    -3.164000000
H     1.986000000     5.012000000    -3.235000000
H     3.439000000     4.591000000    -3.292000000
O     4.502000000    -5.000000000     1.826000000
H     4.300000000    -4.111000000     1.532000000
H     3.647000000    -5.397000000     1.991000000
O    -1.086000000    -2.736000000    -3.176000000
H    -1.213000000    -3.616000000    -3.530000000
H    -1.274000000    -2.825000000    -2.241000000
O     4.722000000     0.287000000    -1.878000000
H     3.854000000     0.529000000    -2.203000000
H     5.257000000     0.202000000    -2.667000000
O     1.922000000    -2.526000000    -3.562000000
H     2.144000000    -1.595000000    -3.540000000
H     0.969000000    -2.543000000    -3.646000000
O     0.906000000    -4.375000000     3.813000000
H     1.706000000    -3.862000000     3.926000000
H     0.197000000    -3.744000000     3.942000000
O     3.478000000    -4.754000000    -4.569000000
H     2.932000000    -5.486000000    -4.855000000
H     2.873000000    -4.015000000    -4.505000000
O    -1.417000000    -2.963000000     3.899000000
H    -2.053000000    -2.789000000     3.205000000
H    -1.756000000    -3.738000000     4.347000000
O    -5.372000000     1.555000000    -0.436000000
H    -6.117000000     1.824000000     0.102000000
H    -4.960000000     2.376000000    -0.703000000
O     0.398000000     3.979000000    -3.377000000
H     0.491000000     4.045000000    -2.427000000
H     0.460000000     3.041000000    -3.559000000
O    -1.670000000     2.971000000     1.437000000
H    -1.121000000     2.911000000     0.655000000
H    -1.081000000     2.761000000     2.161000000
O    -3.864000000    -5.439000000     2.725000000
H    -4.661000000    -4.919000000     2.825000000
H    -3.342000000    -5.229000000     3.499000000
O    -3.361000000    -0.043000000    -6.485000000
H    -2.780000000    -0.313000000    -5.774000000
H    -3.253000000    -0.719000000    -7.153000000
O     4.000000000     2.835000000    -4.173000000
H     4.927000000     2.599000000    -4.149000000
H     3.582000000     2.118000000    -4.649000000
O    -1.437000000     4.267000000    -7.369000000
H    -1.249000000     4.136000000    -6.439000000
H    -1.909000000     3.478000000    -7.632000000
O     4.020000000    -0.888000000    -7.303000000
H     3.894000000     0.028000000    -7.056000000
H     3.210000000    -1.322000000    -7.037000000
O    -2.435000000    -5.262000000    -0.538000000
H    -2.034000000    -4.431000000    -0.791000000
H    -3.370000000    -5.067000000    -0.473000000
O     6.522000000     0.611000000    -4.219000000
H     6.411000000     0.574000000    -5.169000000
H     7.361000000     1.054000000    -4.092000000
O    -6.302000000    -1.585000000    -0.610000000
H    -5.354000000    -1.582000000    -0.478000000
H    -6.431000000    -1.101000000    -1.426000000
O    -1.686000000    -2.633000000    -0.558000000
H    -2.295000000    -2.623000000     0.181000000
H    -1.348000000    -1.738000000    -0.601000000
O     3.397000000     3.313000000     0.965000000
H     4.104000000     2.959000000     1.505000000
H     3.845000000     3.752000000     0.241000000
O     2.687000000    -3.284000000    -1.147000000
H     2.400000000    -4.181000000    -0.979000000
H     2.359000000    -3.087000000    -2.024000000
O    -3.716000000     2.699000000    -3.097000000
H    -3.246000000     3.440000000    -3.480000000
H    -4.580000000     2.726000000    -3.507000000
O     4.894000000    -3.400000000    -2.563000000
H     4.384000000    -3.680000000    -3.323000000
H     4.246000000    -3.031000000    -1.963000000
O     1.639000000    -5.598000000     1.079000000
H     0.997000000    -5.909000000     0.441000000
H     1.128000000    -5.432000000     1.871000000
O    -4.182000000    -0.048000000    -2.489000000
H    -3.922000000     0.733000000    -2.979000000
H    -4.669000000     0.291000000    -1.738000000
O     1.261000000    -1.078000000     4.753000000
H     1.390000000    -0.455000000     5.468000000
H     0.473000000    -0.770000000     4.305000000
O     1.143000000     2.460000000     2.249000000
H     1.869000000     2.803000000     1.727000000
H     0.896000000     1.646000000     1.810000000
O     2.912000000     0.846000000    -5.675000000
H     2.142000000     0.991000000    -6.225000000
H     2.584000000     0.336000000    -4.934000000
O    -3.409000000    -2.327000000     1.460000000
H    -3.881000000    -1.512000000     1.289000000
H    -4.090000000    -2.950000000     1.713000000
O    -3.797000000     0.882000000     3.915000000
H    -4.051000000     0.471000000     3.088000000
H    -4.233000000     1.734000000     3.902000000
O     0.861000000     3.405000000     5.077000000
H     1.670000000     3.912000000     5.006000000
H     0.780000000     2.964000000     4.231000000
O     0.989000000     4.453000000    -0.693000000
H     1.669000000     3.869000000    -0.356000000
H     0.782000000     5.029000000     0.043000000
O    -1.424000000     2.415000000    -5.381000000
H    -2.014000000     1.664000000    -5.309000000
H    -0.639000000     2.150000000    -4.902000000
O    -2.777000000     5.102000000    -3.943000000
H    -1.839000000     4.959000000    -4.072000000
H    -2.834000000     5.600000000    -3.128000000
O    -4.165000000     4.433000000     1.160000000
H    -3.907000000     5.347000000     1.041000000
H    -3.337000000     3.957000000     1.232000000
O     0.123000000    -1.449000000    -6.902000000
H    -0.569000000    -1.562000000    -7.554000000
H    -0.345000000    -1.327000000    -6.076000000
O    -1.221000000    -0.452000000     7.811000000
H    -0.868000000     0.376000000     8.136000000
H    -1.184000000    -0.370000000     6.858000000
O    -1.446000000    -0.539000000    -4.657000000
H    -0.737000000    -0.029000000    -4.267000000
H    -1.406000000    -1.385000000    -4.212000000
O     6.054000000    -0.857000000     0.435000000
H     6.889000000    -0.388000000     0.432000000
H     5.565000000    -0.479000000    -0.296000000
O    -1.382000000    -0.017000000     5.030000000
H    -1.481000000    -0.939000000     4.794000000
H    -2.179000000     0.401000000     4.703000000
O     1.457000000     3.353000000    -7.440000000
H     1.175000000     2.442000000    -7.353000000
H     0.643000000     3.857000000    -7.440000000
O     3.791000000    -2.093000000     1.123000000
H     4.565000000    -1.647000000     0.779000000
H     3.284000000    -2.326000000     0.345000000
O    -4.860000000    -2.752000000    -2.804000000
H    -5.094000000    -2.756000000    -3.732000000
H    -4.329000000    -1.964000000    -2.694000000
