158
-3000.01933
C     1.259000000    -0.010000000    -0.785000000
H     2.213000000    -0.187000000    -1.276000000
C     1.036000000    -0.733000000     0.387000000
H     1.743000000    -1.438000000     0.817000000
C    -0.213000000    -0.629000000     1.030000000
H    -0.483000000    -1.188000000     1.858000000
C    -1.146000000     0.293000000     0.530000000
H    -2.095000000     0.211000000     1.053000000
C    -0.921000000     1.112000000    -0.556000000
H    -1.715000000     1.804000000    -0.826000000
C     0.306000000     0.901000000    -1.265000000
C     0.564000000     1.687000000    -2.530000000
O     1.681000000     1.644000000    -3.030000000
O    -0.294000000     2.384000000    -3.036000000
O    -4.746000000     0.102000000     5.844000000
H    -4.334000000     0.133000000     4.980000000
H    -4.666000000     0.995000000     6.180000000
O     2.189000000    -1.899000000     3.764000000
H     2.785000000    -1.708000000     3.040000000
H     1.830000000    -1.047000000     4.011000000
O    -6.051000000    -0.936000000     1.650000000
H    -6.721000000    -0.253000000     1.627000000
H    -5.806000000    -1.062000000     0.734000000
O    -5.319000000    -3.762000000     2.390000000
H    -5.323000000    -3.582000000     3.330000000
H    -4.881000000    -3.005000000     2.002000000
O     3.131000000     5.518000000    -5.149000000
H     2.237000000     5.194000000    -5.046000000
H     3.682000000     4.745000000    -5.022000000
O     5.135000000    -3.872000000     2.213000000
H     5.098000000    -2.918000000     2.274000000
H     4.328000000    -4.115000000     1.760000000
O     5.881000000     0.706000000    -2.619000000
H     6.214000000     0.305000000    -1.816000000
H     5.297000000     0.045000000    -2.992000000
O    -0.549000000    -1.226000000    -5.695000000
H    -1.063000000    -2.033000000    -5.709000000
H     0.352000000    -1.519000000    -5.557000000
O     3.427000000     3.195000000    -1.822000000
H     2.696000000     2.739000000    -2.238000000
H     4.184000000     2.631000000    -1.984000000
O    -0.190000000     0.696000000    -7.473000000
H     0.393000000     0.413000000    -8.178000000
H    -0.466000000    -0.118000000    -7.050000000
O     0.230000000    -3.942000000     2.782000000
H     0.557000000    -3.163000000     3.231000000
H    -0.697000000    -3.982000000     3.017000000
O    -2.238000000    -3.988000000     3.665000000
H    -2.951000000    -4.362000000     3.147000000
H    -2.056000000    -4.648000000     4.334000000
O    -6.163000000     2.840000000    -1.018000000
H    -5.460000000     3.489000000    -1.039000000
H    -6.096000000     2.387000000    -1.859000000
O     0.702000000     4.791000000    -3.937000000
H     0.278000000     5.451000000    -3.389000000
H     0.398000000     3.955000000    -3.584000000
O    -1.767000000     2.270000000     2.841000000
H    -1.072000000     1.611000000     2.847000000
H    -1.814000000     2.576000000     3.747000000
O    -4.765000000     1.159000000    -5.302000000
H    -4.949000000     1.370000000    -6.217000000
H    -3.834000000     1.352000000    -5.194000000
O     4.386000000     2.542000000    -4.672000000
H     3.791000000     2.305000000    -5.383000000
H     4.177000000     1.927000000    -3.969000000
O     0.262000000    -5.363000000    -1.274000000
H     0.803000000    -5.354000000    -2.064000000
H    -0.314000000    -4.604000000    -1.370000000
O     3.247000000    -0.196000000    -3.996000000
H     2.581000000     0.365000000    -3.599000000
H     2.848000000    -1.066000000    -4.013000000
O    -5.892000000     0.048000000    -0.980000000
H    -6.159000000     0.830000000    -0.498000000
H    -6.005000000     0.283000000    -1.901000000
O    -1.414000000    -3.190000000    -1.852000000
H    -2.120000000    -3.834000000    -1.812000000
H    -1.845000000    -2.378000000    -2.119000000
O     3.357000000     5.341000000     0.000000000
H     3.447000000     4.887000000     0.838000000
H     3.321000000     4.639000000    -0.650000000
O     1.215000000    -2.803000000    -2.570000000
H     0.400000000    -2.508000000    -2.164000000
H     0.936000000    -3.425000000    -3.242000000
O    -5.249000000     4.722000000    -3.788000000
H    -4.426000000     4.244000000    -3.896000000
H    -5.714000000     4.585000000    -4.614000000
O     3.455000000    -4.529000000    -2.092000000
H     2.872000000    -3.776000000    -1.996000000
H     3.081000000    -5.030000000    -2.817000000
O     2.202000000    -5.106000000     1.515000000
H     1.688000000    -5.074000000     0.709000000
H     1.701000000    -4.583000000     2.140000000
O     2.418000000    -4.332000000     5.771000000
H     2.352000000    -3.927000000     6.636000000
H     2.341000000    -3.602000000     5.157000000
O     1.853000000     1.500000000     6.582000000
H     1.835000000     1.453000000     5.626000000
H     2.393000000     2.266000000     6.774000000
O     5.865000000    -3.465000000    -1.300000000
H     5.387000000    -2.768000000    -0.849000000
H     5.182000000    -3.998000000    -1.707000000
O     3.811000000     3.726000000     2.052000000
H     3.154000000     3.037000000     1.954000000
H     4.648000000     3.276000000     1.941000000
O    -2.836000000    -0.960000000    -2.750000000
H    -2.514000000    -0.371000000    -3.432000000
H    -3.596000000    -0.508000000    -2.383000000
O     0.363000000     0.365000000     4.237000000
H     0.337000000     0.722000000     5.124000000
H    -0.414000000    -0.191000000     4.180000000
O     1.542000000     2.228000000     1.803000000
H     1.228000000     1.560000000     2.413000000
H     1.050000000     2.067000000     0.998000000
O     1.431000000     2.102000000    -5.735000000
H     0.920000000     1.629000000    -6.391000000
H     0.947000000     1.977000000    -4.918000000
O    -3.095000000    -2.582000000     0.820000000
H    -3.533000000    -3.166000000     0.201000000
H    -2.168000000    -2.637000000     0.585000000
O    -3.866000000    -0.063000000     3.419000000
H    -4.558000000    -0.466000000     2.894000000
H    -3.254000000     0.292000000     2.776000000
O     0.311000000     5.687000000    -1.013000000
H     1.163000000     5.386000000    -0.696000000
H    -0.323000000     5.261000000    -0.436000000
O    -2.886000000     4.231000000    -5.960000000
H    -2.825000000     3.514000000    -6.592000000
H    -2.867000000     3.798000000    -5.106000000
O    -2.810000000     3.211000000    -3.221000000
H    -1.884000000     3.047000000    -3.039000000
H    -3.226000000     3.220000000    -2.359000000
O    -1.335000000     4.670000000     0.966000000
H    -2.066000000     5.139000000     1.369000000
H    -1.211000000     3.898000000     1.519000000
O    -3.703000000     4.232000000    -0.708000000
H    -3.684000000     5.138000000    -0.402000000
H    -2.941000000     3.824000000    -0.297000000
O    -2.305000000    -1.327000000     7.356000000
H    -2.389000000    -0.392000000     7.543000000
H    -2.017000000    -1.364000000     6.444000000
O    -1.935000000     1.024000000    -5.359000000
H    -1.529000000     1.608000000    -4.719000000
H    -1.242000000     0.407000000    -5.593000000
O     3.644000000     0.281000000    -7.024000000
H     3.184000000     0.079000000    -6.209000000
H     2.955000000     0.301000000    -7.689000000
O     6.550000000    -0.246000000     0.319000000
H     7.101000000    -0.891000000    -0.125000000
H     7.169000000     0.363000000     0.720000000
O    -1.880000000    -1.263000000     4.511000000
H    -1.929000000    -2.082000000     4.018000000
H    -2.595000000    -0.730000000     4.162000000
O     1.560000000     3.611000000    -8.044000000
H     1.263000000     3.332000000    -7.178000000
H     0.803000000     3.468000000    -8.613000000
O     4.413000000    -1.014000000     1.901000000
H     4.893000000    -0.600000000     1.183000000
H     4.665000000    -0.514000000     2.677000000
