158
-3021.05549
C     0.991000000    -0.429000000    -0.955000000
H     1.805000000    -0.641000000    -1.643000000
C     1.111000000     0.673000000    -0.123000000
H     2.009000000     1.281000000    -0.043000000
C     0.057000000     0.922000000     0.784000000
H     0.229000000     1.685000000     1.520000000
C    -1.072000000     0.178000000     0.816000000
H    -1.816000000     0.415000000     1.573000000
C    -1.228000000    -0.901000000    -0.086000000
H    -2.104000000    -1.544000000    -0.078000000
C    -0.170000000    -1.193000000    -1.009000000
C    -0.366000000    -2.349000000    -1.982000000
O     0.447000000    -2.522000000    -2.903000000
O    -1.277000000    -3.149000000    -1.950000000
O    -0.259000000     1.705000000     4.964000000
H    -1.050000000     1.668000000     4.426000000
H    -0.404000000     2.444000000     5.554000000
O     1.111000000    -1.058000000     2.632000000
H     1.828000000    -0.426000000     2.588000000
H     0.488000000    -0.759000000     1.970000000
O    -4.108000000    -0.082000000    -3.121000000
H    -4.506000000     0.774000000    -3.281000000
H    -3.398000000    -0.139000000    -3.761000000
O    -1.251000000    -6.249000000     2.203000000
H    -0.959000000    -5.341000000     2.115000000
H    -0.477000000    -6.771000000     1.992000000
O    -1.877000000    -5.530000000    -2.864000000
H    -2.440000000    -5.423000000    -3.631000000
H    -1.681000000    -4.636000000    -2.585000000
O     5.197000000    -3.289000000    -4.783000000
H     5.723000000    -3.910000000    -4.279000000
H     4.350000000    -3.276000000    -4.338000000
O     2.841000000    -2.400000000    -3.527000000
H     1.947000000    -2.441000000    -3.188000000
H     3.395000000    -2.522000000    -2.756000000
O     0.669000000    -0.464000000     6.526000000
H     1.392000000    -0.332000000     7.139000000
H     0.592000000     0.370000000     6.063000000
O    -2.985000000    -7.349000000    -1.126000000
H    -2.468000000    -6.697000000    -1.599000000
H    -3.220000000    -6.919000000    -0.305000000
O    -6.389000000    -3.658000000    -2.915000000
H    -5.611000000    -3.417000000    -2.412000000
H    -6.982000000    -4.041000000    -2.269000000
O    -3.853000000    -2.905000000    -1.600000000
H    -3.935000000    -2.254000000    -2.297000000
H    -3.027000000    -3.351000000    -1.784000000
O     2.413000000     1.205000000     5.268000000
H     1.509000000     1.300000000     4.969000000
H     2.727000000     2.103000000     5.372000000
O    -4.185000000    -1.856000000     1.373000000
H    -4.161000000    -2.248000000     0.500000000
H    -4.485000000    -2.563000000     1.944000000
O     1.224000000     6.477000000     2.325000000
H     1.079000000     7.185000000     1.696000000
H     0.794000000     5.717000000     1.933000000
O     0.450000000    -4.253000000    -4.747000000
H    -0.119000000    -3.822000000    -5.384000000
H     0.460000000    -3.661000000    -3.995000000
O     1.811000000    -2.473000000     5.051000000
H     1.164000000    -2.178000000     4.410000000
H     1.877000000    -1.750000000     5.674000000
O     5.406000000     3.629000000    -0.089000000
H     6.261000000     4.035000000    -0.234000000
H     4.782000000     4.351000000    -0.161000000
O     1.728000000    -6.316000000    -1.821000000
H     1.335000000    -5.711000000    -1.191000000
H     0.996000000    -6.600000000    -2.369000000
O     2.159000000    -2.817000000     0.717000000
H     2.919000000    -2.240000000     0.643000000
H     1.607000000    -2.402000000     1.379000000
O     3.902000000    -0.888000000     0.629000000
H     3.622000000    -0.037000000     0.965000000
H     4.776000000    -0.728000000     0.272000000
O    -0.839000000     6.538000000     4.601000000
H    -0.165000000     6.298000000     3.965000000
H    -1.548000000     6.904000000     4.072000000
O    -0.094000000     3.878000000     6.741000000
H    -0.098000000     3.183000000     7.399000000
H     0.834000000     4.045000000     6.575000000
O    -5.709000000     0.011000000    -0.973000000
H    -5.123000000    -0.279000000    -1.672000000
H    -5.152000000     0.052000000    -0.195000000
O     6.677000000    -0.062000000    -2.921000000
H     6.136000000    -0.821000000    -3.140000000
H     6.089000000     0.687000000    -3.020000000
O     3.334000000     0.689000000     2.849000000
H     3.008000000     0.924000000     3.718000000
H     4.234000000     0.401000000     3.001000000
O    -1.405000000    -1.676000000     4.906000000
H    -1.749000000    -0.993000000     4.331000000
H    -0.777000000    -1.221000000     5.468000000
O    -1.592000000     7.268000000    -0.935000000
H    -1.595000000     6.328000000    -1.118000000
H    -2.407000000     7.421000000    -0.456000000
O     3.673000000     5.709000000    -0.804000000
H     2.796000000     5.337000000    -0.712000000
H     3.573000000     6.400000000    -1.459000000
O    -4.488000000     3.385000000     0.911000000
H    -4.539000000     2.535000000     1.348000000
H    -5.401000000     3.646000000     0.788000000
O    -4.106000000    -3.481000000    -4.633000000
H    -3.845000000    -2.572000000    -4.486000000
H    -5.015000000    -3.520000000    -4.337000000
O     1.843000000    -0.059000000    -4.366000000
H     2.280000000    -0.330000000    -5.173000000
H     1.456000000    -0.864000000    -4.021000000
O     1.255000000    -5.411000000    -7.087000000
H     0.905000000    -5.307000000    -6.202000000
H     0.934000000    -4.645000000    -7.563000000
O    -0.652000000     2.848000000    -1.322000000
H    -0.669000000     2.008000000    -0.863000000
H    -1.566000000     3.015000000    -1.551000000
O     6.286000000     1.069000000    -0.342000000
H     6.061000000     1.981000000    -0.156000000
H     6.331000000     1.023000000    -1.297000000
O    -2.035000000    -1.129000000    -4.523000000
H    -1.517000000    -0.810000000    -5.261000000
H    -1.535000000    -1.871000000    -4.182000000
O     2.904000000    -1.269000000    -6.579000000
H     2.426000000    -1.373000000    -7.402000000
H     2.642000000    -2.024000000    -6.052000000
O     4.510000000     1.502000000    -3.205000000
H     3.690000000     1.077000000    -3.454000000
H     4.619000000     2.206000000    -3.845000000
O    -0.045000000     2.177000000    -3.977000000
H     0.756000000     1.659000000    -3.904000000
H    -0.298000000     2.356000000    -3.071000000
O    -3.181000000     3.294000000    -1.574000000
H    -3.881000000     3.061000000    -2.184000000
H    -3.632000000     3.474000000    -0.749000000
O    -4.615000000     0.836000000     1.828000000
H    -4.370000000    -0.069000000     1.634000000
H    -5.464000000     0.766000000     2.265000000
O     0.044000000    -4.961000000    -0.176000000
H     0.060000000    -4.208000000     0.414000000
H    -0.544000000    -4.698000000    -0.884000000
O    -2.528000000     1.741000000     3.780000000
H    -2.917000000     1.746000000     2.906000000
H    -3.241000000     2.006000000     4.361000000
O    -0.377000000    -3.152000000    -7.323000000
H    -1.051000000    -2.492000000    -7.161000000
H     0.296000000    -2.689000000    -7.822000000
O     0.027000000     4.992000000     0.185000000
H    -0.498000000     4.621000000     0.893000000
H     0.102000000     4.284000000    -0.455000000
O    -0.278000000    -3.749000000     2.842000000
H    -0.969000000    -3.657000000     3.497000000
H     0.347000000    -3.055000000     3.053000000
O    -0.504000000    -7.687000000    -3.515000000
H    -0.929000000    -6.848000000    -3.338000000
H    -1.096000000    -8.339000000    -3.139000000
O     5.029000000    -2.575000000    -1.591000000
H     5.801000000    -3.125000000    -1.459000000
H     4.551000000    -2.631000000    -0.763000000
O    -1.190000000     4.361000000     2.595000000
H    -1.906000000     4.884000000     2.234000000
H    -1.490000000     4.119000000     3.472000000
