158
-3034.90289
C     0.847000000    -0.191000000    -1.239000000
H     1.522000000    -0.110000000    -2.087000000
C     0.740000000     1.010000000    -0.437000000
H     1.352000000     1.865000000    -0.714000000
C    -0.029000000     1.028000000     0.692000000
H    -0.105000000     1.983000000     1.242000000
C    -0.736000000    -0.150000000     1.054000000
H    -1.320000000    -0.125000000     1.971000000
C    -0.606000000    -1.310000000     0.258000000
H    -1.078000000    -2.206000000     0.653000000
C     0.136000000    -1.326000000    -0.928000000
C     0.100000000    -2.494000000    -1.814000000
O     0.949000000    -2.601000000    -2.694000000
O    -0.672000000    -3.404000000    -1.582000000
O    -1.024000000     1.735000000     4.793000000
H    -1.733000000     2.378000000     4.812000000
H    -1.382000000     0.971000000     5.245000000
O     0.065000000     4.432000000    -0.755000000
H    -0.083000000     5.342000000    -0.497000000
H    -0.755000000     3.987000000    -0.542000000
O     1.658000000    -2.053000000     2.136000000
H     2.296000000    -1.359000000     1.968000000
H     0.840000000    -1.719000000     1.766000000
O    -3.018000000     0.389000000    -2.312000000
H    -2.952000000    -0.375000000    -2.885000000
H    -3.014000000     1.137000000    -2.908000000
O    -1.539000000    -4.752000000     0.902000000
H    -1.207000000    -4.458000000     0.053000000
H    -0.990000000    -5.502000000     1.128000000
O     5.785000000    -2.896000000    -4.462000000
H     6.437000000    -2.353000000    -4.021000000
H     5.380000000    -3.403000000    -3.758000000
O     3.182000000    -4.031000000    -2.864000000
H     2.356000000    -3.566000000    -2.724000000
H     3.820000000    -3.548000000    -2.339000000
O     1.952000000     0.844000000     6.566000000
H     2.585000000     1.448000000     6.954000000
H     1.574000000     1.331000000     5.834000000
O    -3.697000000    -6.904000000     0.472000000
H    -3.401000000    -5.994000000     0.496000000
H    -3.401000000    -7.274000000     1.303000000
O    -4.024000000    -3.532000000     0.959000000
H    -3.909000000    -2.642000000     0.626000000
H    -3.136000000    -3.887000000     1.007000000
O     1.503000000     1.604000000     3.513000000
H     0.610000000     1.363000000     3.759000000
H     1.422000000     2.488000000     3.153000000
O    -4.359000000    -1.175000000     5.666000000
H    -4.916000000    -0.542000000     5.212000000
H    -3.776000000    -1.511000000     4.985000000
O    -4.391000000    -0.041000000     3.122000000
H    -4.102000000    -0.191000000     2.222000000
H    -3.708000000    -0.438000000     3.662000000
O    -0.433000000    -7.710000000     0.071000000
H    -0.041000000    -7.009000000    -0.449000000
H    -0.490000000    -8.452000000    -0.531000000
O     1.635000000     6.471000000     1.529000000
H     2.480000000     6.900000000     1.397000000
H     1.069000000     6.843000000     0.854000000
O    -1.644000000     1.541000000    -5.728000000
H    -1.526000000     2.092000000    -6.501000000
H    -1.309000000     2.070000000    -5.004000000
O     1.693000000    -3.566000000    -6.193000000
H     1.506000000    -3.056000000    -6.981000000
H     0.991000000    -3.334000000    -5.585000000
O     5.111000000     4.028000000     2.476000000
H     4.481000000     4.036000000     3.197000000
H     4.582000000     3.861000000     1.697000000
O     2.987000000    -6.539000000    -2.601000000
H     2.470000000    -6.743000000    -1.822000000
H     2.929000000    -5.587000000    -2.685000000
O     2.692000000    -3.904000000     0.606000000
H     3.328000000    -3.460000000     0.044000000
H     2.473000000    -3.257000000     1.277000000
O    -1.119000000    -1.547000000    -5.432000000
H    -0.569000000    -0.766000000    -5.381000000
H    -1.031000000    -1.844000000    -6.337000000
O     4.780000000     0.864000000    -0.093000000
H     4.108000000     0.779000000     0.583000000
H     5.535000000     1.233000000     0.365000000
O    -3.929000000    -0.777000000     0.310000000
H    -3.114000000    -0.337000000     0.070000000
H    -4.617000000    -0.229000000    -0.068000000
O     4.347000000     1.322000000    -2.864000000
H     4.274000000     1.194000000    -1.918000000
H     5.007000000     2.009000000    -2.962000000
O     3.454000000     0.344000000     2.287000000
H     2.599000000     0.735000000     2.464000000
H     3.915000000     0.385000000     3.125000000
O    -0.099000000     7.338000000    -0.359000000
H    -0.549000000     7.952000000     0.221000000
H    -0.499000000     7.482000000    -1.217000000
O    -0.422000000    -1.544000000     5.939000000
H    -1.190000000    -1.091000000     6.288000000
H     0.324000000    -1.059000000     6.291000000
O     3.274000000     3.855000000     0.378000000
H     2.673000000     3.205000000     0.741000000
H     2.816000000     4.205000000    -0.386000000
O     3.496000000     4.187000000     4.658000000
H     3.697000000     3.280000000     4.888000000
H     2.658000000     4.138000000     4.198000000
O    -5.156000000    -3.475000000    -2.380000000
H    -4.223000000    -3.326000000    -2.535000000
H    -5.215000000    -3.674000000    -1.446000000
O     5.095000000    -0.116000000    -5.072000000
H     5.073000000    -1.026000000    -4.774000000
H     4.810000000     0.391000000    -4.311000000
O     1.140000000     4.118000000     2.948000000
H     0.699000000     4.549000000     3.680000000
H     1.015000000     4.715000000     2.210000000
O     2.258000000     1.585000000    -4.417000000
H     2.070000000     0.649000000    -4.483000000
H     3.055000000     1.633000000    -3.889000000
O     1.393000000    -6.809000000    -5.623000000
H     1.887000000    -6.497000000    -4.865000000
H     1.437000000    -6.087000000    -6.251000000
O    -2.201000000     2.976000000    -0.551000000
H    -2.880000000     2.612000000    -1.119000000
H    -1.545000000     2.281000000    -0.485000000
O    -2.680000000    -3.024000000    -3.456000000
H    -2.369000000    -2.541000000    -4.222000000
H    -1.885000000    -3.238000000    -2.968000000
O     1.952000000    -1.027000000    -4.706000000
H     2.410000000    -1.652000000    -5.267000000
H     1.544000000    -1.568000000    -4.029000000
O    -2.400000000    -1.756000000     3.866000000
H    -1.483000000    -1.775000000     4.142000000
H    -2.438000000    -2.358000000     3.123000000
O    -0.440000000     2.677000000    -3.466000000
H     0.450000000     2.366000000    -3.632000000
H    -0.629000000     2.396000000    -2.571000000
O    -2.754000000     4.920000000     1.593000000
H    -2.791000000     4.474000000     0.746000000
H    -3.660000000     5.176000000     1.768000000
O    -5.344000000     2.444000000     3.662000000
H    -5.023000000     1.721000000     3.123000000
H    -6.079000000     2.072000000     4.150000000
O     1.021000000    -5.506000000    -0.686000000
H     1.572000000    -4.963000000    -0.122000000
H     0.395000000    -4.893000000    -1.071000000
O    -3.210000000     3.324000000     4.937000000
H    -3.974000000     3.107000000     4.404000000
H    -3.567000000     3.503000000     5.807000000
O     0.861000000     5.608000000    -3.356000000
H     0.684000000     5.304000000    -2.466000000
H     1.386000000     6.400000000    -3.239000000
O    -1.001000000     6.425000000     3.148000000
H    -0.559000000     5.896000000     3.812000000
H    -1.352000000     5.786000000     2.528000000
O    -1.908000000    -7.757000000    -2.464000000
H    -2.391000000    -8.106000000    -3.213000000
H    -2.342000000    -6.928000000    -2.264000000
O     4.567000000    -2.518000000    -1.031000000
H     5.248000000    -3.111000000    -0.713000000
H     4.924000000    -1.642000000    -0.883000000
O    -0.046000000     4.678000000     5.297000000
H     0.418000000     4.936000000     6.094000000
H    -0.800000000     4.179000000     5.611000000
