158
-3037.12213
C     0.993000000     0.079000000    -1.106000000
H     1.723000000     0.317000000    -1.875000000
C     0.795000000     1.010000000    -0.084000000
H     1.485000000     1.850000000    -0.101000000
C    -0.124000000     0.819000000     0.918000000
H    -0.332000000     1.500000000     1.746000000
C    -0.972000000    -0.286000000     0.859000000
H    -1.759000000    -0.427000000     1.595000000
C    -0.814000000    -1.220000000    -0.127000000
H    -1.417000000    -2.125000000    -0.118000000
C     0.166000000    -1.032000000    -1.198000000
C     0.281000000    -2.027000000    -2.376000000
O     1.235000000    -2.069000000    -3.152000000
O    -0.632000000    -2.868000000    -2.495000000
O    -2.217000000     4.375000000     4.373000000
H    -2.886000000     4.212000000     3.708000000
H    -2.663000000     4.215000000     5.205000000
O    -0.673000000     5.898000000     1.413000000
H    -1.615000000     5.734000000     1.457000000
H    -0.555000000     6.734000000     1.866000000
O     2.240000000    -1.355000000     1.225000000
H     2.876000000    -1.196000000     0.528000000
H     1.659000000    -0.595000000     1.198000000
O    -0.544000000    -2.841000000    -7.256000000
H    -0.626000000    -3.597000000    -6.674000000
H    -1.447000000    -2.579000000    -7.435000000
O    -4.409000000    -1.012000000    -0.908000000
H    -3.935000000    -1.780000000    -1.229000000
H    -4.217000000    -0.327000000    -1.549000000
O     2.350000000     3.440000000    -3.818000000
H     1.410000000     3.286000000    -3.915000000
H     2.409000000     4.254000000    -3.318000000
O    -3.084000000    -3.466000000     1.137000000
H    -2.463000000    -3.870000000     0.531000000
H    -2.757000000    -3.700000000     2.006000000
O     4.088000000    -3.340000000    -7.320000000
H     4.822000000    -3.604000000    -6.765000000
H     3.310000000    -3.594000000    -6.824000000
O     2.501000000    -4.523000000    -2.575000000
H     2.148000000    -3.709000000    -2.935000000
H     3.170000000    -4.239000000    -1.953000000
O    -4.900000000    -4.999000000    -0.339000000
H    -4.312000000    -4.692000000    -1.029000000
H    -4.471000000    -4.736000000     0.475000000
O     0.350000000     3.253000000     3.539000000
H    -0.595000000     3.323000000     3.675000000
H     0.642000000     4.155000000     3.411000000
O    -5.082000000    -1.349000000     2.023000000
H    -4.480000000    -1.321000000     1.279000000
H    -4.640000000    -1.902000000     2.667000000
O    -1.236000000    -7.267000000    -0.266000000
H    -1.013000000    -6.343000000    -0.160000000
H    -1.623000000    -7.322000000    -1.140000000
O     4.185000000    -3.419000000    -0.793000000
H     4.904000000    -3.622000000    -0.195000000
H     4.361000000    -2.524000000    -1.085000000
O     1.862000000    -3.387000000    -5.863000000
H     0.996000000    -3.218000000    -6.235000000
H     1.903000000    -2.826000000    -5.088000000
O    -0.728000000     4.603000000    -3.799000000
H    -1.628000000     4.828000000    -3.562000000
H    -0.246000000     4.643000000    -2.973000000
O     0.880000000    -2.489000000     3.285000000
H     0.721000000    -1.699000000     3.802000000
H     1.562000000    -2.235000000     2.663000000
O    -0.447000000    -5.331000000    -3.185000000
H     0.286000000    -5.737000000    -2.721000000
H    -0.423000000    -4.413000000    -2.915000000
O     1.764000000    -4.143000000     0.681000000
H     2.688000000    -4.196000000     0.438000000
H     1.670000000    -3.276000000     1.076000000
O    -3.584000000    -3.931000000    -5.334000000
H    -2.830000000    -4.404000000    -5.687000000
H    -3.229000000    -3.084000000    -5.062000000
O     4.947000000     2.206000000     2.818000000
H     4.080000000     2.019000000     3.177000000
H     4.788000000     2.389000000     1.892000000
O    -5.625000000     1.293000000    -0.354000000
H    -5.285000000     0.398000000    -0.358000000
H    -5.907000000     1.438000000     0.549000000
O     2.363000000     2.910000000     6.110000000
H     2.160000000     2.732000000     5.191000000
H     1.709000000     2.411000000     6.600000000
O     3.470000000    -0.938000000    -4.206000000
H     2.851000000    -1.299000000    -3.571000000
H     4.324000000    -1.261000000    -3.918000000
O     2.389000000     1.252000000     3.415000000
H     1.708000000     1.875000000     3.161000000
H     1.925000000     0.581000000     3.916000000
O    -0.990000000     6.587000000    -1.113000000
H    -0.809000000     6.577000000    -0.174000000
H    -1.887000000     6.915000000    -1.181000000
O    -1.521000000     1.613000000     6.644000000
H    -1.920000000     1.230000000     7.425000000
H    -2.263000000     1.890000000     6.107000000
O     2.861000000     5.077000000     0.336000000
H     2.480000000     5.924000000     0.570000000
H     2.109000000     4.489000000     0.260000000
O    -3.327000000     0.740000000    -3.212000000
H    -2.737000000     0.069000000    -3.558000000
H    -3.901000000     0.955000000    -3.947000000
O     2.654000000     0.652000000    -6.289000000
H     3.387000000     1.261000000    -6.387000000
H     2.979000000    -0.020000000    -5.691000000
O     1.275000000     5.887000000     3.939000000
H     0.626000000     5.951000000     4.639000000
H     1.224000000     6.729000000     3.486000000
O    -1.159000000     2.463000000    -5.381000000
H    -0.941000000     1.654000000    -4.918000000
H    -1.032000000     3.154000000    -4.731000000
O    -3.829000000    -3.280000000     3.857000000
H    -3.766000000    -2.728000000     4.637000000
H    -4.636000000    -3.779000000     3.982000000
O    -1.198000000    -5.068000000    -5.841000000
H    -0.903000000    -5.262000000    -4.951000000
H    -1.038000000    -5.876000000    -6.328000000
O    -3.449000000     5.579000000     1.766000000
H    -3.896000000     4.848000000     2.193000000
H    -4.132000000     6.011000000     1.254000000
O     4.655000000     2.865000000     0.152000000
H     4.716000000     2.700000000    -0.789000000
H     4.203000000     3.706000000     0.219000000
O    -3.337000000    -3.194000000    -2.073000000
H    -3.958000000    -3.515000000    -2.726000000
H    -2.525000000    -3.057000000    -2.562000000
O     0.130000000    -0.209000000    -4.744000000
H     0.848000000     0.042000000    -5.325000000
H     0.532000000    -0.803000000    -4.110000000
O     4.498000000     2.483000000    -2.460000000
H     3.983000000     2.786000000    -3.207000000
H     5.032000000     1.769000000    -2.810000000
O    -1.850000000     2.147000000    -1.226000000
H    -1.427000000     1.594000000    -0.569000000
H    -2.400000000     1.546000000    -1.728000000
O    -0.777000000    -4.605000000    -0.324000000
H     0.048000000    -4.460000000     0.139000000
H    -0.796000000    -3.927000000    -0.998000000
O     0.292000000    -0.146000000     4.639000000
H    -0.520000000     0.281000000     4.911000000
H     0.518000000    -0.721000000     5.370000000
O     0.104000000     3.881000000    -0.719000000
H    -0.614000000     3.249000000    -0.705000000
H    -0.166000000     4.563000000    -0.104000000
O    -2.617000000    -0.989000000    -5.162000000
H    -2.518000000    -0.485000000    -5.970000000
H    -1.720000000    -1.154000000    -4.872000000
O     2.609000000     5.653000000    -2.382000000
H     2.788000000     5.585000000    -1.444000000
H     3.244000000     6.295000000    -2.701000000
O    -1.271000000    -4.446000000     3.111000000
H    -1.918000000    -4.340000000     3.808000000
H    -0.734000000    -3.656000000     3.160000000
O    -2.406000000    -7.234000000    -2.584000000
H    -3.145000000    -6.909000000    -3.099000000
H    -1.666000000    -6.693000000    -2.857000000
O     4.591000000    -0.786000000    -0.525000000
H     4.270000000     0.053000000    -0.854000000
H     5.212000000    -0.551000000     0.165000000
