158
-3045.16143
C     0.955000000    -0.088000000    -1.079000000
H     1.757000000    -0.150000000    -1.810000000
C     1.229000000     0.204000000     0.255000000
H     2.256000000     0.306000000     0.596000000
C     0.269000000     0.326000000     1.164000000
H     0.492000000     0.699000000     2.131000000
C    -1.066000000     0.129000000     0.744000000
H    -1.915000000     0.171000000     1.422000000
C    -1.374000000    -0.292000000    -0.551000000
H    -2.375000000    -0.531000000    -0.899000000
C    -0.372000000    -0.360000000    -1.531000000
C    -0.540000000    -0.707000000    -2.956000000
O     0.283000000    -0.511000000    -3.798000000
O    -1.519000000    -1.409000000    -3.230000000
O    -1.857000000     1.445000000     4.752000000
H    -2.137000000     2.316000000     4.470000000
H    -2.217000000     1.352000000     5.635000000
O     1.744000000    -2.302000000     2.828000000
H     1.515000000    -2.339000000     1.900000000
H     0.912000000    -2.422000000     3.285000000
O     0.727000000    -1.404000000    -7.112000000
H     0.687000000    -1.800000000    -7.983000000
H     1.387000000    -1.917000000    -6.646000000
O     6.589000000     2.658000000     1.436000000
H     5.673000000     2.883000000     1.274000000
H     6.596000000     1.702000000     1.481000000
O    -3.171000000    -2.938000000     3.121000000
H    -2.537000000    -2.221000000     3.092000000
H    -3.161000000    -3.302000000     2.236000000
O     3.331000000     4.118000000    -1.546000000
H     2.838000000     4.881000000    -1.847000000
H     4.077000000     4.485000000    -1.074000000
O     2.870000000    -4.274000000    -0.497000000
H     2.111000000    -3.731000000    -0.286000000
H     2.999000000    -4.818000000     0.280000000
O    -3.609000000    -2.710000000    -2.140000000
H    -4.116000000    -2.938000000    -2.918000000
H    -2.725000000    -2.545000000    -2.470000000
O     3.871000000    -1.058000000    -5.884000000
H     4.058000000    -0.146000000    -5.661000000
H     3.541000000    -1.022000000    -6.782000000
O     2.217000000    -2.286000000    -3.980000000
H     1.504000000    -1.683000000    -3.770000000
H     2.849000000    -1.750000000    -4.460000000
O    -1.038000000    -4.989000000    -4.119000000
H    -1.109000000    -4.159000000    -4.590000000
H    -0.286000000    -4.872000000    -3.539000000
O     1.075000000     1.127000000     4.757000000
H     1.114000000     0.253000000     5.144000000
H     0.140000000     1.326000000     4.708000000
O    -3.714000000    -4.138000000     0.338000000
H    -3.582000000    -3.630000000    -0.463000000
H    -4.634000000    -4.000000000     0.560000000
O    -6.106000000     0.873000000     0.516000000
H    -5.818000000     0.269000000     1.200000000
H    -5.957000000     1.743000000     0.886000000
O    -5.859000000    -3.299000000     1.374000000
H    -6.514000000    -3.541000000     2.029000000
H    -5.960000000    -2.353000000     1.273000000
O    -3.697000000     0.691000000    -2.942000000
H    -4.512000000     0.190000000    -2.983000000
H    -3.008000000     0.036000000    -3.049000000
O    -1.648000000     4.222000000     3.816000000
H    -2.433000000     4.235000000     3.269000000
H    -0.929000000     4.080000000     3.200000000
O     0.084000000     3.455000000    -6.298000000
H    -0.175000000     2.534000000    -6.299000000
H    -0.570000000     3.888000000    -6.848000000
O    -6.424000000     0.949000000    -2.059000000
H    -6.376000000     1.898000000    -2.171000000
H    -6.161000000     0.802000000    -1.150000000
O     4.845000000    -3.265000000    -3.305000000
H     4.087000000    -2.879000000    -2.866000000
H     5.157000000    -3.937000000    -2.698000000
O     1.860000000    -4.259000000    -6.063000000
H     1.676000000    -3.999000000    -5.161000000
H     2.698000000    -4.718000000    -6.015000000
O    -1.068000000    -1.381000000     4.140000000
H    -0.769000000    -1.665000000     5.004000000
H    -1.329000000    -0.469000000     4.265000000
O     0.390000000    -3.174000000     0.268000000
H    -0.231000000    -3.848000000     0.543000000
H    -0.159000000    -2.444000000    -0.019000000
O     3.973000000     2.351000000     0.661000000
H     3.804000000     3.061000000     0.042000000
H     4.005000000     1.563000000     0.119000000
O     1.328000000    -4.580000000    -2.823000000
H     1.692000000    -4.748000000    -1.954000000
H     1.627000000    -3.698000000    -3.042000000
O     4.448000000    -3.226000000     2.526000000
H     3.679000000    -2.658000000     2.577000000
H     4.088000000    -4.103000000     2.390000000
O    -3.129000000    -0.757000000    -6.691000000
H    -2.383000000    -1.342000000    -6.555000000
H    -2.749000000     0.121000000    -6.684000000
O     6.259000000    -2.249000000     0.330000000
H     6.736000000    -3.028000000     0.044000000
H     5.753000000    -2.542000000     1.088000000
O     2.134000000     5.673000000     3.425000000
H     1.681000000     4.856000000     3.633000000
H     1.537000000     6.134000000     2.835000000
O     4.312000000     0.989000000    -1.449000000
H     4.262000000     0.043000000    -1.311000000
H     3.896000000     1.129000000    -2.300000000
O     2.592000000     2.439000000     7.017000000
H     2.088000000     2.136000000     6.262000000
H     2.765000000     3.363000000     6.835000000
O     3.729000000    -1.232000000     5.462000000
H     3.562000000    -1.179000000     6.403000000
H     2.869000000    -1.110000000     5.059000000
O    -4.842000000    -2.885000000    -4.557000000
H    -4.551000000    -2.136000000    -5.077000000
H    -4.640000000    -3.646000000    -5.101000000
O    -3.004000000     2.717000000    -1.073000000
H    -2.107000000     2.418000000    -0.928000000
H    -3.444000000     1.969000000    -1.477000000
O    -0.499000000     0.758000000    -6.290000000
H    -0.135000000     0.066000000    -6.843000000
H    -0.389000000     0.433000000    -5.397000000
O     0.556000000     3.368000000     2.454000000
H     1.512000000     3.364000000     2.417000000
H     0.280000000     3.271000000     1.542000000
O     2.998000000     2.404000000     3.508000000
H     2.145000000     2.046000000     3.754000000
H     3.194000000     1.998000000     2.664000000
O    -3.253000000     4.283000000     1.218000000
H    -2.994000000     3.994000000     0.343000000
H    -3.957000000     3.685000000     1.469000000
O     2.782000000     1.096000000    -3.619000000
H     3.154000000     1.811000000    -4.137000000
H     1.960000000     0.883000000    -4.061000000
O     0.180000000     2.961000000    -1.609000000
H     1.089000000     2.726000000    -1.795000000
H     0.243000000     3.716000000    -1.023000000
O    -0.001000000     4.763000000    -3.859000000
H    -0.042000000     4.003000000    -3.278000000
H    -0.024000000     4.391000000    -4.740000000
O    -2.320000000    -5.852000000    -2.146000000
H    -1.547000000    -6.325000000    -1.838000000
H    -2.035000000    -5.431000000    -2.957000000
O     5.775000000     2.632000000     4.063000000
H     6.130000000     2.610000000     3.174000000
H     4.827000000     2.690000000     3.941000000
O    -1.306000000    -2.540000000    -5.612000000
H    -1.408000000    -2.149000000    -4.744000000
H    -0.531000000    -2.112000000    -5.976000000
O    -1.895000000    -3.912000000    -7.967000000
H    -1.902000000    -4.640000000    -7.346000000
H    -1.429000000    -3.212000000    -7.510000000
O     0.262000000    -2.165000000     6.235000000
H     0.008000000    -3.050000000     6.497000000
H     0.789000000    -1.841000000     6.966000000
O     3.824000000    -1.713000000    -0.911000000
H     3.598000000    -2.637000000    -0.809000000
H     4.566000000    -1.581000000    -0.321000000
O    -5.830000000    -0.917000000     2.971000000
H    -5.357000000    -1.692000000     3.275000000
H    -6.338000000    -0.633000000     3.731000000
