158
-2984.54971
C    -0.559000000     0.963000000    -0.949000000
H    -1.024000000     1.714000000    -1.582000000
C    -0.381000000     1.169000000     0.442000000
H    -0.688000000     2.087000000     0.937000000
C     0.156000000     0.171000000     1.212000000
H     0.197000000     0.314000000     2.312000000
C     0.650000000    -0.943000000     0.590000000
H     0.957000000    -1.782000000     1.208000000
C     0.565000000    -1.112000000    -0.802000000
H     1.072000000    -1.979000000    -1.218000000
C    -0.050000000    -0.180000000    -1.620000000
C    -0.201000000    -0.328000000    -3.104000000
O    -0.777000000     0.563000000    -3.739000000
O     0.102000000    -1.368000000    -3.668000000
O     4.058000000    -2.194000000     2.646000000
H     4.049000000    -1.238000000     2.601000000
H     3.161000000    -2.431000000     2.882000000
O     0.016000000     6.075000000     3.268000000
H     0.880000000     5.663000000     3.256000000
H     0.137000000     6.870000000     3.787000000
O     1.287000000    -6.625000000    -2.153000000
H     1.286000000    -6.400000000    -1.222000000
H     0.864000000    -7.483000000    -2.193000000
O     0.968000000     1.810000000    -5.534000000
H     0.028000000     1.715000000    -5.380000000
H     1.325000000     2.070000000    -4.685000000
O    -2.107000000    -4.496000000    -4.948000000
H    -1.441000000    -4.133000000    -5.532000000
H    -1.630000000    -5.113000000    -4.394000000
O     1.976000000    -1.089000000    -5.504000000
H     2.362000000    -0.222000000    -5.381000000
H     1.327000000    -1.164000000    -4.804000000
O    -2.474000000    -0.939000000    -5.828000000
H    -2.092000000    -0.391000000    -5.142000000
H    -1.989000000    -1.762000000    -5.776000000
O     5.396000000    -3.187000000     0.368000000
H     4.920000000    -2.765000000     1.084000000
H     5.452000000    -4.107000000     0.628000000
O    -2.526000000    -2.428000000    -2.373000000
H    -1.855000000    -3.104000000    -2.271000000
H    -2.362000000    -2.058000000    -3.240000000
O     1.426000000    -3.548000000    -3.947000000
H     1.073000000    -2.696000000    -3.688000000
H     1.262000000    -4.114000000    -3.192000000
O     4.625000000    -0.893000000    -2.401000000
H     4.893000000     0.025000000    -2.345000000
H     4.599000000    -1.191000000    -1.492000000
O     4.800000000    -4.909000000    -2.021000000
H     4.678000000    -4.350000000    -1.253000000
H     4.714000000    -4.315000000    -2.766000000
O    -0.605000000     4.213000000    -2.094000000
H    -0.615000000     4.078000000    -1.147000000
H    -1.505000000     4.038000000    -2.371000000
O    -4.455000000     1.650000000    -5.427000000
H    -5.008000000     1.108000000    -5.990000000
H    -4.940000000     1.713000000    -4.604000000
O    -2.586000000    -1.038000000     7.703000000
H    -1.972000000    -0.753000000     7.026000000
H    -2.746000000    -0.253000000     8.227000000
O     1.746000000     5.993000000     0.455000000
H     0.808000000     6.122000000     0.600000000
H     1.908000000     5.090000000     0.725000000
O     4.417000000     0.910000000     2.636000000
H     5.247000000     0.823000000     3.103000000
H     4.654000000     1.304000000     1.797000000
O     1.087000000     1.920000000     6.014000000
H     1.756000000     2.574000000     5.811000000
H     0.825000000     2.116000000     6.914000000
O    -0.289000000    -2.905000000    -6.152000000
H     0.049000000    -2.758000000    -5.268000000
H     0.493000000    -3.002000000    -6.695000000
O    -0.978000000     4.487000000    -5.416000000
H    -1.629000000     3.914000000    -5.012000000
H    -0.375000000     4.703000000    -4.706000000
O    -0.642000000     0.660000000    -7.668000000
H     0.183000000     1.139000000    -7.748000000
H    -0.549000000     0.157000000    -6.859000000
O    -3.460000000     0.579000000     5.106000000
H    -3.750000000    -0.328000000     5.009000000
H    -2.512000000     0.516000000     5.224000000
O    -2.736000000     3.360000000     2.589000000
H    -2.408000000     2.942000000     3.386000000
H    -3.075000000     4.205000000     2.884000000
O     4.128000000    -3.068000000    -4.018000000
H     4.286000000    -2.311000000    -3.454000000
H     3.175000000    -3.140000000    -4.061000000
O    -5.481000000     1.816000000     3.789000000
H    -5.513000000     1.770000000     2.833000000
H    -4.687000000     1.337000000     4.025000000
O    -0.824000000     7.077000000    -0.425000000
H    -1.068000000     6.162000000    -0.283000000
H    -1.495000000     7.578000000     0.037000000
O    -3.803000000     1.449000000     0.138000000
H    -3.208000000     1.219000000    -0.575000000
H    -3.311000000     2.075000000     0.669000000
O     3.068000000    -2.739000000     5.277000000
H     3.976000000    -2.705000000     4.977000000
H     2.935000000    -1.907000000     5.731000000
O    -0.802000000     4.649000000     0.875000000
H    -0.468000000     4.992000000     1.704000000
H    -1.481000000     4.024000000     1.130000000
O    -0.897000000     3.439000000     4.769000000
H    -0.285000000     4.079000000     4.405000000
H    -0.386000000     2.964000000     5.424000000
O     2.352000000     3.064000000     0.675000000
H     1.614000000     2.459000000     0.743000000
H     3.119000000     2.498000000     0.588000000
O     1.108000000     5.724000000    -3.651000000
H     0.519000000     5.188000000    -3.120000000
H     1.901000000     5.804000000    -3.122000000
O    -0.353000000    -3.886000000     1.035000000
H     0.215000000    -3.739000000     1.791000000
H    -1.224000000    -4.015000000     1.410000000
O    -0.347000000    -4.051000000    -1.722000000
H    -1.062000000    -4.686000000    -1.683000000
H    -0.253000000    -3.740000000    -0.822000000
O     3.129000000     2.434000000    -3.498000000
H     2.834000000     1.844000000    -2.804000000
H     3.528000000     1.857000000    -4.149000000
O     2.199000000    -3.071000000    -7.537000000
H     2.200000000    -3.963000000    -7.190000000
H     2.079000000    -2.515000000    -6.768000000
O    -3.207000000     1.415000000    -7.857000000
H    -3.543000000     1.499000000    -6.965000000
H    -2.293000000     1.154000000    -7.746000000
O    -2.530000000     2.834000000    -4.015000000
H    -3.202000000     2.466000000    -4.589000000
H    -1.900000000     2.123000000    -3.897000000
O     2.394000000     4.607000000     3.149000000
H     3.021000000     4.533000000     3.868000000
H     2.816000000     4.160000000     2.416000000
O     2.936000000    -0.491000000     6.696000000
H     2.811000000     0.407000000     6.388000000
H     2.711000000    -0.459000000     7.626000000
O     1.248000000    -3.531000000     3.354000000
H     1.927000000    -3.264000000     3.973000000
H     0.430000000    -3.228000000     3.750000000
O     2.008000000     0.072000000     4.006000000
H     2.784000000     0.341000000     3.514000000
H     2.011000000     0.631000000     4.783000000
O     1.933000000    -5.665000000     0.642000000
H     1.939000000    -5.888000000     1.573000000
H     1.193000000    -5.067000000     0.543000000
O    -1.210000000    -2.991000000     4.284000000
H    -0.896000000    -3.313000000     5.128000000
H    -2.022000000    -3.474000000     4.130000000
O    -3.226000000    -2.055000000     2.590000000
H    -2.440000000    -1.888000000     3.111000000
H    -3.952000000    -1.892000000     3.193000000
O    -0.764000000    -0.128000000     5.478000000
H    -0.420000000    -0.872000000     4.983000000
H    -0.026000000     0.479000000     5.542000000
O    -3.368000000     4.581000000    -2.001000000
H    -4.173000000     4.648000000    -1.488000000
H    -3.577000000     3.954000000    -2.693000000
O    -4.086000000    -2.056000000    -0.179000000
H    -3.598000000    -1.906000000     0.631000000
H    -3.417000000    -2.062000000    -0.863000000
