158
-3030.26595
C    -0.776000000     0.735000000    -1.027000000
H    -1.345000000     1.387000000    -1.686000000
C    -0.597000000     1.104000000     0.277000000
H    -1.058000000     2.012000000     0.654000000
C     0.064000000     0.279000000     1.175000000
H     0.056000000     0.392000000     2.244000000
C     0.716000000    -0.881000000     0.728000000
H     1.343000000    -1.515000000     1.350000000
C     0.631000000    -1.199000000    -0.626000000
H     1.124000000    -2.071000000    -1.048000000
C    -0.074000000    -0.374000000    -1.502000000
C    -0.250000000    -0.708000000    -2.992000000
O    -1.054000000    -0.206000000    -3.762000000
O     0.418000000    -1.664000000    -3.392000000
O     3.204000000    -3.935000000     1.465000000
H     3.239000000    -3.135000000     1.990000000
H     3.692000000    -4.580000000     1.978000000
O     2.739000000     3.892000000    -3.781000000
H     3.321000000     3.403000000    -3.201000000
H     1.919000000     3.963000000    -3.293000000
O     0.484000000     2.279000000    -4.819000000
H    -0.146000000     1.559000000    -4.819000000
H     0.220000000     2.829000000    -4.082000000
O    -1.206000000    -6.034000000    -4.552000000
H    -1.032000000    -5.093000000    -4.587000000
H    -0.353000000    -6.441000000    -4.708000000
O     2.049000000    -1.694000000    -5.433000000
H     1.478000000    -1.921000000    -4.699000000
H     2.812000000    -1.286000000    -5.025000000
O    -0.576000000    -0.655000000    -6.293000000
H    -0.783000000    -0.421000000    -5.388000000
H     0.363000000    -0.837000000    -6.285000000
O    -3.192000000    -1.474000000    -2.685000000
H    -2.316000000    -1.236000000    -2.988000000
H    -3.759000000    -1.313000000    -3.440000000
O     1.487000000    -4.045000000    -3.294000000
H     1.103000000    -3.175000000    -3.183000000
H     1.797000000    -4.284000000    -2.421000000
O     5.099000000    -3.515000000    -0.512000000
H     4.848000000    -2.636000000    -0.796000000
H     4.433000000    -3.759000000     0.130000000
O    -2.332000000     3.761000000    -1.427000000
H    -2.354000000     4.535000000    -0.864000000
H    -3.009000000     3.186000000    -1.071000000
O    -4.230000000    -1.043000000    -5.136000000
H    -4.087000000    -1.794000000    -5.712000000
H    -4.143000000    -0.281000000    -5.708000000
O    -1.900000000    -4.342000000     1.692000000
H    -2.005000000    -3.391000000     1.651000000
H    -1.705000000    -4.600000000     0.791000000
O    -1.512000000    -2.858000000    -8.051000000
H    -0.957000000    -2.340000000    -7.468000000
H    -1.007000000    -2.931000000    -8.861000000
O     2.196000000     4.700000000    -0.100000000
H     1.848000000     4.686000000     0.791000000
H     3.058000000     4.291000000    -0.026000000
O     5.927000000     0.089000000     3.072000000
H     6.524000000    -0.068000000     2.340000000
H     5.112000000     0.374000000     2.660000000
O    -1.192000000    -3.467000000    -4.932000000
H    -0.677000000    -2.768000000    -4.528000000
H    -2.098000000    -3.166000000    -4.866000000
O    -2.114000000     4.437000000    -4.715000000
H    -1.791000000     4.285000000    -3.827000000
H    -2.562000000     3.624000000    -4.949000000
O    -1.112000000    -0.941000000     6.000000000
H    -1.051000000    -1.879000000     5.816000000
H    -0.216000000    -0.680000000     6.213000000
O    -1.262000000    -5.402000000    -1.037000000
H    -1.137000000    -6.306000000    -1.327000000
H    -0.568000000    -4.911000000    -1.476000000
O    -1.410000000     2.393000000     4.234000000
H    -0.837000000     2.441000000     4.999000000
H    -1.405000000     3.279000000     3.874000000
O     4.026000000     1.613000000     1.353000000
H     3.743000000     1.618000000     0.438000000
H     3.520000000     2.315000000     1.763000000
O     4.253000000    -5.494000000    -2.717000000
H     4.144000000    -4.851000000    -2.016000000
H     3.489000000    -5.366000000    -3.279000000
O    -3.221000000     0.855000000     5.538000000
H    -2.480000000     1.343000000     5.178000000
H    -2.825000000     0.084000000     5.944000000
O     3.837000000     1.183000000    -4.551000000
H     3.069000000     1.745000000    -4.653000000
H     4.149000000     1.038000000    -5.444000000
O    -3.562000000     0.715000000     2.352000000
H    -3.833000000     1.324000000     1.665000000
H    -2.712000000     1.044000000     2.643000000
O     2.009000000     3.222000000     2.397000000
H     2.562000000     3.704000000     3.012000000
H     1.365000000     2.780000000     2.951000000
O    -0.983000000     4.879000000     3.554000000
H    -1.633000000     5.581000000     3.518000000
H    -0.141000000     5.332000000     3.566000000
O     1.653000000     1.781000000     5.271000000
H     2.228000000     2.312000000     5.824000000
H     1.081000000     1.326000000     5.889000000
O     2.899000000     0.141000000     3.410000000
H     2.556000000     0.708000000     4.101000000
H     2.989000000     0.717000000     2.650000000
O     0.469000000     3.637000000    -1.998000000
H    -0.427000000     3.680000000    -1.665000000
H     0.999000000     4.046000000    -1.313000000
O     0.066000000    -5.785000000     3.121000000
H    -0.397000000    -6.559000000     3.440000000
H    -0.628000000    -5.170000000     2.886000000
O     2.171000000    -4.838000000    -0.886000000
H     2.101000000    -4.175000000    -0.200000000
H     2.403000000    -5.642000000    -0.420000000
O     2.338000000     1.670000000    -0.911000000
H     1.617000000     1.270000000    -0.426000000
H     1.918000000     2.100000000    -1.655000000
O    -4.419000000     1.495000000    -6.625000000
H    -3.736000000     1.769000000    -6.013000000
H    -5.237000000     1.758000000    -6.204000000
O     1.707000000    -2.807000000    -7.725000000
H     2.288000000    -3.567000000    -7.703000000
H     1.794000000    -2.413000000    -6.857000000
O    -2.230000000     0.598000000    -8.430000000
H    -2.859000000     0.874000000    -7.763000000
H    -1.840000000    -0.201000000    -8.076000000
O    -2.979000000     1.813000000    -4.097000000
H    -3.695000000     1.895000000    -3.468000000
H    -2.550000000     0.989000000    -3.866000000
O    -5.400000000    -1.656000000    -0.976000000
H    -4.504000000    -1.671000000    -1.311000000
H    -5.380000000    -2.234000000    -0.212000000
O     2.722000000    -5.645000000    -4.999000000
H     2.070000000    -6.336000000    -4.883000000
H     2.348000000    -4.885000000    -4.552000000
O    -3.732000000    -2.424000000     5.031000000
H    -4.159000000    -3.228000000     5.330000000
H    -2.834000000    -2.497000000     5.353000000
O    -4.928000000     1.609000000    -2.073000000
H    -5.870000000     1.767000000    -2.009000000
H    -4.855000000     0.678000000    -2.280000000
O     4.038000000    -2.293000000     3.745000000
H     4.973000000    -2.093000000     3.692000000
H     3.611000000    -1.437000000     3.773000000
O     4.888000000    -0.550000000    -0.680000000
H     5.727000000    -0.603000000    -0.224000000
H     4.412000000     0.145000000    -0.224000000
O    -3.322000000    -1.937000000     2.196000000
H    -3.486000000    -0.995000000     2.162000000
H    -3.131000000    -2.114000000     3.117000000
O    -0.744000000    -3.530000000     5.011000000
H    -0.547000000    -4.311000000     4.493000000
H     0.054000000    -3.370000000     5.515000000
O    -4.405000000     2.793000000     0.485000000
H    -4.991000000     3.440000000     0.878000000
H    -4.734000000     2.682000000    -0.407000000
O     4.621000000    -1.107000000    -3.428000000
H     4.397000000    -0.253000000    -3.799000000
H     4.517000000    -0.993000000    -2.483000000
O    -3.410000000    -4.108000000    -2.024000000
H    -2.660000000    -4.583000000    -1.666000000
H    -3.061000000    -3.246000000    -2.254000000
