158
-3028.24467
C    -0.333000000     1.197000000    -0.921000000
H    -0.590000000     2.093000000    -1.481000000
C    -0.249000000     1.257000000     0.479000000
H    -0.613000000     2.118000000     1.033000000
C     0.140000000     0.123000000     1.199000000
H     0.209000000     0.087000000     2.257000000
C     0.354000000    -1.074000000     0.637000000
H     0.613000000    -1.934000000     1.249000000
C     0.262000000    -1.211000000    -0.772000000
H     0.493000000    -2.156000000    -1.257000000
C    -0.152000000    -0.113000000    -1.564000000
C    -0.274000000    -0.223000000    -3.114000000
O    -0.213000000     0.723000000    -3.823000000
O    -0.211000000    -1.335000000    -3.661000000
O    -4.106000000     4.135000000     4.560000000
H    -3.532000000     3.751000000     3.897000000
H    -4.207000000     3.445000000     5.216000000
O    -2.623000000    -2.216000000    -3.785000000
H    -1.691000000    -2.121000000    -3.982000000
H    -2.992000000    -1.348000000    -3.948000000
O    -2.522000000     7.103000000    -0.991000000
H    -2.071000000     6.259000000    -1.025000000
H    -3.452000000     6.877000000    -0.999000000
O     0.026000000     5.962000000    -2.827000000
H    -0.605000000     5.262000000    -2.996000000
H     0.557000000     5.636000000    -2.100000000
O     1.996000000    -1.470000000    -5.142000000
H     1.147000000    -1.274000000    -4.747000000
H     2.614000000    -1.433000000    -4.411000000
O     1.304000000     2.844000000    -3.311000000
H     0.830000000     3.258000000    -2.590000000
H     0.843000000     2.019000000    -3.459000000
O    -1.394000000    -0.747000000    -8.970000000
H    -1.013000000    -1.255000000    -8.254000000
H    -2.254000000    -0.481000000    -8.644000000
O    -2.660000000    -3.173000000    -0.843000000
H    -2.732000000    -2.279000000    -0.507000000
H    -2.710000000    -3.075000000    -1.794000000
O     5.721000000     0.161000000     3.484000000
H     6.419000000     0.513000000     2.932000000
H     5.006000000    -0.029000000     2.876000000
O     0.062000000    -4.044000000    -3.489000000
H     0.171000000    -3.108000000    -3.661000000
H    -0.003000000    -4.107000000    -2.536000000
O     3.676000000    -3.785000000    -2.628000000
H     3.724000000    -3.980000000    -3.564000000
H     3.593000000    -2.833000000    -2.585000000
O    -2.838000000     1.380000000    -4.725000000
H    -1.989000000     1.419000000    -4.285000000
H    -3.452000000     1.759000000    -4.096000000
O    -2.307000000    -5.486000000    -3.325000000
H    -1.818000000    -6.113000000    -2.792000000
H    -1.717000000    -4.738000000    -3.418000000
O     1.366000000    -3.289000000     4.461000000
H     1.744000000    -2.689000000     5.103000000
H     0.644000000    -2.797000000     4.069000000
O     1.271000000     0.762000000    -8.213000000
H     0.832000000     1.118000000    -7.440000000
H     0.666000000     0.100000000    -8.547000000
O    -1.267000000    -4.383000000     6.270000000
H    -0.469000000    -4.023000000     5.882000000
H    -0.982000000    -5.191000000     6.697000000
O    -0.261000000    -2.371000000    -6.864000000
H     0.567000000    -2.779000000    -6.611000000
H    -0.478000000    -1.796000000    -6.130000000
O    -1.333000000    -2.257000000     3.703000000
H    -2.165000000    -2.544000000     4.078000000
H    -1.277000000    -1.328000000     3.926000000
O    -1.588000000    -4.797000000    -6.499000000
H    -1.446000000    -3.864000000    -6.657000000
H    -1.034000000    -4.999000000    -5.745000000
O     2.033000000    -6.050000000    -2.005000000
H     2.615000000    -5.319000000    -2.211000000
H     1.214000000    -5.636000000    -1.732000000
O    -0.752000000     3.678000000     5.699000000
H    -0.540000000     3.022000000     6.363000000
H    -0.132000000     4.390000000     5.860000000
O     4.143000000     3.738000000     3.932000000
H     4.604000000     3.112000000     3.372000000
H     3.226000000     3.668000000     3.665000000
O    -1.448000000     0.704000000     4.113000000
H    -1.060000000     1.090000000     4.899000000
H    -1.831000000     1.447000000     3.647000000
O     2.391000000     4.747000000    -4.869000000
H     3.201000000     4.272000000    -5.054000000
H     1.838000000     4.110000000    -4.417000000
O    -2.458000000     6.125000000     2.318000000
H    -2.982000000     6.635000000     1.701000000
H    -2.025000000     6.782000000     2.864000000
O     3.284000000     1.963000000    -1.392000000
H     2.460000000     2.187000000    -1.826000000
H     3.774000000     2.785000000    -1.369000000
O     1.721000000     2.620000000     2.574000000
H     0.873000000     2.284000000     2.862000000
H     1.994000000     2.020000000     1.880000000
O     2.614000000    -0.898000000     3.762000000
H     2.888000000    -1.605000000     4.347000000
H     2.454000000    -0.155000000     4.344000000
O     1.406000000     5.354000000     1.454000000
H     1.376000000     5.953000000     2.200000000
H     1.482000000     4.485000000     1.848000000
O    -4.069000000     0.651000000     4.734000000
H    -4.440000000    -0.152000000     5.100000000
H    -3.318000000     0.355000000     4.219000000
O     1.738000000    -4.401000000     1.228000000
H     2.521000000    -4.795000000     0.844000000
H     2.017000000    -3.526000000     1.497000000
O    -4.441000000    -4.160000000    -3.834000000
H    -3.785000000    -3.463000000    -3.851000000
H    -3.930000000    -4.968000000    -3.773000000
O     4.647000000     0.338000000     0.768000000
H     4.416000000     0.928000000     0.051000000
H     4.244000000    -0.497000000     0.530000000
O    -0.544000000     2.158000000    -6.194000000
H    -1.449000000     2.084000000    -5.892000000
H    -0.038000000     1.644000000    -5.565000000
O    -0.680000000     3.877000000    -8.439000000
H    -0.877000000     3.260000000    -7.734000000
H     0.214000000     4.167000000    -8.260000000
O    -2.145000000     3.791000000    -2.860000000
H    -2.801000000     3.855000000    -3.554000000
H    -2.545000000     3.222000000    -2.203000000
O    -2.979000000    -0.336000000     0.056000000
H    -2.248000000    -0.200000000     0.659000000
H    -3.755000000    -0.334000000     0.617000000
O     3.442000000    -1.639000000     6.363000000
H     4.359000000    -1.894000000     6.464000000
H     3.435000000    -0.698000000     6.536000000
O    -3.395000000     1.700000000    -1.591000000
H    -4.295000000     1.505000000    -1.851000000
H    -3.234000000     1.128000000    -0.840000000
O     3.804000000    -3.871000000    -5.302000000
H     3.265000000    -3.090000000    -5.178000000
H     3.355000000    -4.365000000    -5.987000000
O     3.429000000    -2.085000000     1.399000000
H     4.252000000    -2.466000000     1.705000000
H     3.072000000    -1.637000000     2.166000000
O     1.690000000     4.679000000    -1.190000000
H     2.515000000     5.104000000    -1.425000000
H     1.428000000     5.101000000    -0.372000000
O    -0.755000000    -5.040000000     3.047000000
H     0.104000000    -5.188000000     2.652000000
H    -0.926000000    -4.108000000     2.909000000
O    -0.085000000     1.130000000     6.707000000
H    -0.168000000     0.533000000     7.451000000
H     0.584000000     1.759000000     6.978000000
O     3.261000000     1.207000000     5.986000000
H     2.791000000     1.876000000     6.485000000
H     4.054000000     1.648000000     5.683000000
O    -1.593000000     3.478000000     3.200000000
H    -1.804000000     4.360000000     2.894000000
H    -1.227000000     3.609000000     4.075000000
O     3.826000000    -0.863000000    -2.695000000
H     3.403000000    -0.401000000    -1.971000000
H     4.580000000    -0.317000000    -2.920000000
O     0.113000000    -4.583000000    -0.931000000
H     0.595000000    -4.477000000    -0.111000000
H    -0.806000000    -4.629000000    -0.665000000
