158
-3031.02290
C     0.132000000     1.391000000     0.038000000
H     0.447000000     2.425000000     0.157000000
C     0.804000000     0.461000000     0.832000000
H     1.514000000     0.700000000     1.620000000
C     0.484000000    -0.860000000     0.718000000
H     0.980000000    -1.584000000     1.235000000
C    -0.532000000    -1.276000000    -0.250000000
H    -0.834000000    -2.315000000    -0.355000000
C    -1.184000000    -0.301000000    -0.988000000
H    -1.863000000    -0.690000000    -1.743000000
C    -0.807000000     1.055000000    -0.844000000
C    -1.152000000     2.175000000    -1.831000000
O    -1.675000000     1.899000000    -2.892000000
O    -0.975000000     3.324000000    -1.507000000
O     1.431000000     1.693000000     5.200000000
H     1.148000000     1.844000000     6.102000000
H     0.751000000     1.130000000     4.828000000
O     4.520000000     1.527000000     5.450000000
H     4.580000000     2.134000000     4.712000000
H     3.589000000     1.312000000     5.508000000
O    -1.447000000    -6.800000000     2.168000000
H    -1.603000000    -7.117000000     3.058000000
H    -1.674000000    -5.871000000     2.202000000
O     5.793000000    -1.090000000     4.930000000
H     5.370000000    -0.237000000     5.035000000
H     5.993000000    -1.145000000     3.996000000
O     1.848000000    -3.501000000     7.058000000
H     2.254000000    -2.659000000     6.853000000
H     1.703000000    -3.474000000     8.004000000
O     7.490000000    -1.529000000     2.287000000
H     8.207000000    -2.162000000     2.246000000
H     6.882000000    -1.811000000     1.603000000
O     3.243000000     1.516000000    -1.719000000
H     3.072000000     2.413000000    -2.008000000
H     3.497000000     1.606000000    -0.800000000
O    -4.261000000     1.342000000    -2.248000000
H    -4.793000000     1.140000000    -3.018000000
H    -3.383000000     1.494000000    -2.597000000
O     0.063000000    -3.038000000    -5.185000000
H     0.231000000    -2.198000000    -4.757000000
H    -0.615000000    -3.449000000    -4.648000000
O    -5.074000000    -0.057000000    -4.538000000
H    -5.991000000     0.166000000    -4.381000000
H    -5.070000000    -1.010000000    -4.629000000
O    -7.254000000     0.201000000    -0.920000000
H    -7.581000000     0.258000000    -1.817000000
H    -6.328000000     0.435000000    -0.987000000
O    -3.930000000     5.073000000     2.088000000
H    -3.748000000     4.795000000     1.190000000
H    -3.072000000     5.298000000     2.448000000
O     0.962000000    -6.857000000     3.819000000
H     1.010000000    -5.934000000     4.069000000
H     0.243000000    -6.897000000     3.188000000
O    -1.929000000    -4.448000000    -0.191000000
H    -2.045000000    -5.210000000    -0.759000000
H    -1.113000000    -4.622000000     0.279000000
O    -1.652000000    -3.804000000    -3.137000000
H    -1.977000000    -4.686000000    -3.316000000
H    -1.464000000    -3.804000000    -2.198000000
O     2.315000000     3.978000000    -2.554000000
H     2.656000000     4.708000000    -2.037000000
H     2.362000000     4.284000000    -3.460000000
O    -3.043000000     7.308000000    -4.147000000
H    -2.492000000     7.590000000    -4.877000000
H    -2.994000000     6.353000000    -4.164000000
O     0.550000000     5.426000000    -0.779000000
H    -0.072000000     4.738000000    -1.016000000
H     0.740000000     5.871000000    -1.605000000
O    -2.565000000     2.588000000     2.171000000
H    -2.549000000     3.308000000     2.802000000
H    -2.920000000     2.977000000     1.372000000
O     1.369000000     7.236000000     1.100000000
H     0.924000000     6.517000000     0.651000000
H     0.852000000     7.377000000     1.894000000
O    -3.696000000    -2.811000000     1.115000000
H    -3.185000000    -3.411000000     0.571000000
H    -3.214000000    -2.766000000     1.940000000
O    -3.918000000    -2.733000000    -4.680000000
H    -4.666000000    -3.327000000    -4.755000000
H    -3.404000000    -3.086000000    -3.954000000
O    -3.692000000     1.138000000    -6.598000000
H    -3.932000000     0.617000000    -5.832000000
H    -3.492000000     2.005000000    -6.245000000
O    -2.450000000     4.531000000    -3.829000000
H    -2.201000000     4.939000000    -2.999000000
H    -2.278000000     3.599000000    -3.698000000
O     1.806000000    -4.274000000    -3.100000000
H     1.203000000    -4.995000000    -3.281000000
H     1.486000000    -3.553000000    -3.640000000
O     1.690000000    -0.185000000    -3.466000000
H     1.014000000     0.392000000    -3.822000000
H     2.060000000     0.303000000    -2.731000000
O     4.482000000     2.114000000     0.524000000
H     5.251000000     1.843000000     1.025000000
H     4.189000000     2.919000000     0.952000000
O    -2.139000000    -4.315000000     3.540000000
H    -1.584000000    -3.539000000     3.459000000
H    -2.462000000    -4.284000000     4.441000000
O    -2.406000000    -0.134000000     2.503000000
H    -2.450000000    -0.527000000     1.631000000
H    -2.652000000     0.781000000     2.367000000
O     0.588000000     5.227000000    -5.734000000
H    -0.037000000     4.541000000    -5.499000000
H     0.713000000     5.724000000    -4.926000000
O     3.331000000    -4.026000000     2.388000000
H     2.847000000    -4.071000000     3.213000000
H     3.740000000    -4.888000000     2.305000000
O    -0.117000000     1.157000000    -4.904000000
H    -0.815000000     1.070000000    -5.553000000
H    -0.488000000     1.727000000    -4.229000000
O     0.305000000     3.486000000     3.249000000
H     0.406000000     2.877000000     3.981000000
H    -0.254000000     3.021000000     2.626000000
O     6.204000000    -4.344000000    -0.679000000
H     5.341000000    -4.557000000    -1.033000000
H     6.024000000    -3.752000000     0.052000000
O     5.339000000    -2.389000000     1.009000000
H     4.749000000    -1.888000000     0.445000000
H     4.757000000    -2.907000000     1.565000000
O    -0.193000000    -1.675000000     3.501000000
H    -0.279000000    -1.192000000     2.679000000
H    -0.568000000    -1.092000000     4.161000000
O    -1.463000000     5.430000000     3.174000000
H    -1.087000000     6.309000000     3.116000000
H    -0.716000000     4.842000000     3.065000000
O     4.037000000    -1.106000000    -0.668000000
H     4.780000000    -0.558000000    -0.920000000
H     3.275000000    -0.535000000    -0.768000000
O    -1.146000000     1.018000000     4.672000000
H    -1.908000000     0.741000000     4.163000000
H    -1.474000000     1.724000000     5.229000000
O    -3.339000000     3.786000000    -0.146000000
H    -2.413000000     3.685000000    -0.369000000
H    -3.788000000     3.139000000    -0.690000000
O     1.373000000     0.888000000    -7.121000000
H     0.824000000     1.666000000    -7.217000000
H     1.308000000     0.662000000    -6.193000000
O     1.004000000    -4.448000000     0.701000000
H     1.645000000    -4.402000000     1.410000000
H     1.522000000    -4.340000000    -0.097000000
O     3.554000000    -3.828000000    -1.067000000
H     2.983000000    -3.939000000    -1.827000000
H     3.807000000    -2.905000000    -1.090000000
O    -4.635000000    -0.336000000    -0.061000000
H    -4.272000000     0.147000000    -0.805000000
H    -4.206000000    -1.191000000    -0.099000000
O     0.922000000    -4.179000000     4.195000000
H     1.340000000    -3.824000000     4.980000000
H     0.526000000    -3.418000000     3.770000000
O    -4.336000000     4.398000000    -5.726000000
H    -5.147000000     4.070000000    -5.337000000
H    -3.724000000     4.451000000    -4.992000000
O     3.105000000     4.422000000     1.054000000
H     2.182000000     4.529000000     1.286000000
H     3.227000000     4.987000000     0.292000000
O     0.248000000     7.307000000    -3.613000000
H    -0.123000000     7.672000000    -2.809000000
H    -0.296000000     7.668000000    -4.313000000
