158
-3035.17821
C     0.491000000     0.055000000    -1.437000000
H     0.955000000     0.200000000    -2.409000000
C     0.265000000     1.186000000    -0.580000000
H     0.273000000     2.173000000    -1.035000000
C    -0.205000000     1.007000000     0.660000000
H    -0.439000000     1.773000000     1.363000000
C    -0.361000000    -0.293000000     1.160000000
H    -0.895000000    -0.503000000     2.083000000
C    -0.057000000    -1.418000000     0.412000000
H    -0.228000000    -2.424000000     0.786000000
C     0.358000000    -1.200000000    -0.898000000
C     0.633000000    -2.441000000    -1.714000000
O     0.496000000    -2.326000000    -2.899000000
O     0.562000000    -3.608000000    -1.249000000
O    -2.907000000     3.972000000     5.922000000
H    -3.387000000     3.344000000     6.463000000
H    -2.574000000     3.452000000     5.191000000
O    -0.076000000     5.123000000     4.906000000
H     0.482000000     4.687000000     5.550000000
H    -0.718000000     5.603000000     5.430000000
O     0.943000000     5.790000000    -4.736000000
H     0.607000000     5.490000000    -3.892000000
H     1.039000000     4.990000000    -5.254000000
O     2.736000000    -1.079000000    -4.258000000
H     1.961000000    -1.296000000    -3.740000000
H     3.297000000    -1.852000000    -4.184000000
O    -1.232000000    -6.831000000    -4.725000000
H    -0.796000000    -6.584000000    -5.541000000
H    -0.522000000    -7.128000000    -4.155000000
O     1.619000000    -4.072000000    -4.443000000
H     1.369000000    -4.807000000    -3.883000000
H     1.269000000    -3.301000000    -3.997000000
O    -1.818000000    -4.325000000    -2.988000000
H    -1.006000000    -3.849000000    -2.815000000
H    -1.539000000    -5.228000000    -3.139000000
O    -1.816000000    -4.587000000     0.419000000
H    -2.450000000    -4.360000000    -0.261000000
H    -0.978000000    -4.633000000    -0.042000000
O     3.191000000    -4.040000000    -0.600000000
H     2.330000000    -3.789000000    -0.934000000
H     3.097000000    -4.005000000     0.352000000
O    -1.922000000    -2.833000000     2.709000000
H    -1.016000000    -3.041000000     2.937000000
H    -2.153000000    -3.473000000     2.035000000
O    -3.418000000     3.066000000     0.308000000
H    -4.229000000     3.573000000     0.287000000
H    -3.596000000     2.352000000     0.920000000
O     1.483000000     4.525000000     0.285000000
H     1.748000000     3.725000000     0.741000000
H     0.810000000     4.908000000     0.847000000
O    -4.062000000    -0.232000000    -4.378000000
H    -3.138000000    -0.423000000    -4.543000000
H    -4.105000000    -0.053000000    -3.438000000
O     0.538000000    -3.425000000     4.087000000
H     1.299000000    -3.067000000     4.544000000
H     0.110000000    -3.984000000     4.736000000
O     4.060000000     4.870000000    -0.686000000
H     3.113000000     5.001000000    -0.644000000
H     4.170000000     3.919000000    -0.677000000
O     1.784000000     3.846000000     6.514000000
H     2.225000000     3.607000000     7.329000000
H     2.488000000     4.151000000     5.942000000
O     3.661000000     1.520000000    -5.714000000
H     3.562000000     0.938000000    -4.961000000
H     4.606000000     1.651000000    -5.794000000
O     0.623000000    -5.614000000    -6.517000000
H     0.892000000    -4.969000000    -5.862000000
H     1.430000000    -5.838000000    -6.979000000
O    -0.321000000     1.983000000    -6.500000000
H    -0.894000000     2.317000000    -7.190000000
H    -0.867000000     1.984000000    -5.714000000
O     2.337000000    -1.437000000    -6.977000000
H     2.590000000    -1.005000000    -6.161000000
H     3.066000000    -2.025000000    -7.172000000
O    -2.714000000    -0.546000000     6.099000000
H    -3.255000000    -1.200000000     5.657000000
H    -1.814000000    -0.827000000     5.932000000
O    -2.329000000    -7.456000000     0.751000000
H    -3.265000000    -7.384000000     0.565000000
H    -2.043000000    -6.554000000     0.893000000
O    -1.601000000     2.372000000     3.993000000
H    -0.819000000     2.010000000     4.408000000
H    -1.274000000     2.815000000     3.211000000
O     4.003000000    -5.477000000    -2.970000000
H     4.091000000    -4.911000000    -3.737000000
H     3.826000000    -4.876000000    -2.247000000
O    -4.171000000     1.430000000     3.073000000
H    -4.698000000     1.802000000     3.781000000
H    -3.266000000     1.534000000     3.369000000
O    -1.918000000     4.090000000    -1.666000000
H    -2.423000000     4.886000000    -1.836000000
H    -2.241000000     3.777000000    -0.822000000
O     2.287000000     2.767000000     2.281000000
H     2.604000000     3.411000000     2.914000000
H     1.631000000     2.261000000     2.760000000
O    -0.418000000     4.794000000     2.151000000
H    -1.280000000     5.166000000     1.963000000
H    -0.283000000     4.963000000     3.084000000
O     0.857000000     1.805000000     4.825000000
H     1.714000000     1.382000000     4.784000000
H     0.909000000     2.378000000     5.590000000
O     3.820000000     1.724000000     0.315000000
H     3.579000000     0.822000000     0.106000000
H     3.425000000     1.886000000     1.172000000
O    -4.188000000    -4.988000000     1.884000000
H    -3.586000000    -5.002000000     1.141000000
H    -3.898000000    -5.709000000     2.442000000
O     0.438000000     5.071000000    -2.019000000
H    -0.401000000     4.612000000    -2.065000000
H     0.872000000     4.699000000    -1.250000000
O     0.974000000    -5.905000000     2.216000000
H     1.254000000    -5.134000000     1.723000000
H     0.555000000    -5.549000000     2.999000000
O    -3.924000000    -4.704000000    -1.342000000
H    -3.379000000    -4.609000000    -2.123000000
H    -4.219000000    -5.614000000    -1.364000000
O     0.559000000    -7.644000000     0.075000000
H    -0.379000000    -7.827000000     0.036000000
H     0.683000000    -7.202000000     0.915000000
O    -0.050000000    -2.685000000    -8.101000000
H    -0.229000000    -3.312000000    -7.400000000
H     0.594000000    -2.084000000    -7.727000000
O    -1.162000000    -0.862000000    -4.262000000
H    -0.844000000     0.040000000    -4.301000000
H    -0.655000000    -1.264000000    -3.557000000
O     3.408000000     4.273000000     4.355000000
H     4.213000000     3.757000000     4.308000000
H     3.687000000     5.169000000     4.168000000
O    -0.570000000     7.322000000    -0.866000000
H    -0.228000000     6.527000000    -1.276000000
H    -0.271000000     7.271000000     0.042000000
O    -3.563000000     0.926000000    -1.590000000
H    -3.816000000     1.701000000    -1.089000000
H    -3.407000000     0.252000000    -0.928000000
O     3.625000000     0.606000000     5.072000000
H     4.370000000     0.643000000     4.472000000
H     3.983000000     0.882000000     5.916000000
O     2.325000000    -3.363000000     1.844000000
H     2.911000000    -3.217000000     2.587000000
H     1.498000000    -2.960000000     2.108000000
O    -1.715000000    -3.144000000    -5.708000000
H    -1.564000000    -2.257000000    -5.381000000
H    -1.729000000    -3.690000000    -4.921000000
O    -3.882000000    -2.425000000     4.371000000
H    -3.156000000    -2.622000000     3.778000000
H    -4.175000000    -3.281000000     4.683000000
O    -1.257000000     1.806000000    -3.813000000
H    -1.416000000     1.180000000    -3.106000000
H    -1.559000000     2.644000000    -3.463000000
O     1.285000000    -6.036000000    -2.796000000
H     2.158000000    -6.404000000    -2.931000000
H     1.166000000    -6.044000000    -1.846000000
O     4.941000000    -3.074000000    -4.117000000
H     5.300000000    -2.964000000    -4.998000000
H     5.701000000    -3.003000000    -3.539000000
O    -3.850000000    -0.248000000     1.016000000
H    -4.041000000     0.251000000     1.810000000
H    -3.252000000    -0.937000000     1.305000000
