158
-3064.12957
C    -1.162000000     0.934000000    -0.374000000
H    -1.845000000     1.743000000    -0.618000000
C    -0.762000000     0.620000000     0.952000000
H    -1.238000000     1.205000000     1.735000000
C     0.254000000    -0.337000000     1.155000000
H     0.585000000    -0.545000000     2.135000000
C     0.845000000    -1.058000000     0.126000000
H     1.593000000    -1.796000000     0.401000000
C     0.530000000    -0.659000000    -1.152000000
H     1.074000000    -1.095000000    -1.985000000
C    -0.540000000     0.234000000    -1.416000000
C    -0.748000000     0.642000000    -2.874000000
O    -1.527000000     1.531000000    -3.169000000
O    -0.165000000     0.128000000    -3.786000000
O    -3.348000000     0.216000000    -4.693000000
H    -2.564000000     0.727000000    -4.491000000
H    -3.261000000    -0.576000000    -4.162000000
O    -1.757000000     4.269000000     0.210000000
H    -2.021000000     5.188000000     0.178000000
H    -0.906000000     4.249000000    -0.227000000
O     3.336000000    -1.062000000    -6.335000000
H     2.937000000    -1.854000000    -5.976000000
H     3.698000000    -0.610000000    -5.573000000
O     1.915000000     1.574000000    -4.738000000
H     1.087000000     1.393000000    -4.295000000
H     1.939000000     0.952000000    -5.465000000
O    -0.327000000     0.508000000    -6.344000000
H    -0.435000000     0.354000000    -5.405000000
H    -0.318000000     1.461000000    -6.431000000
O     4.672000000    -3.533000000     0.944000000
H     3.814000000    -3.929000000     0.789000000
H     4.775000000    -3.548000000     1.895000000
O     2.466000000    -3.481000000    -4.185000000
H     2.685000000    -3.160000000    -3.309000000
H     2.792000000    -4.380000000    -4.199000000
O     1.448000000    -2.453000000     6.329000000
H     0.660000000    -2.990000000     6.422000000
H     1.694000000    -2.231000000     7.227000000
O     0.967000000    -6.661000000     0.912000000
H     1.627000000    -6.189000000     0.404000000
H     1.221000000    -7.581000000     0.840000000
O     3.835000000     0.363000000    -2.735000000
H     3.387000000     1.041000000    -2.228000000
H     3.424000000     0.400000000    -3.599000000
O    -3.326000000     4.646000000     4.504000000
H    -3.354000000     5.586000000     4.323000000
H    -2.517000000     4.347000000     4.089000000
O     4.485000000     4.100000000     3.671000000
H     4.800000000     4.500000000     2.860000000
H     4.024000000     3.311000000     3.385000000
O    -3.398000000     4.888000000    -3.330000000
H    -3.634000000     4.106000000    -2.831000000
H    -2.485000000     4.746000000    -3.579000000
O    -0.868000000    -3.779000000     1.960000000
H    -1.440000000    -3.766000000     1.192000000
H    -0.096000000    -4.267000000     1.674000000
O     1.548000000     3.288000000     5.319000000
H     1.524000000     2.331000000     5.332000000
H     1.692000000     3.512000000     4.400000000
O    -1.786000000    -3.704000000     4.414000000
H    -2.732000000    -3.678000000     4.272000000
H    -1.428000000    -4.025000000     3.586000000
O    -2.125000000    -0.261000000    -8.444000000
H    -2.797000000     0.392000000    -8.249000000
H    -1.721000000    -0.449000000    -7.597000000
O    -4.956000000     0.083000000    -1.274000000
H    -5.447000000    -0.580000000    -1.760000000
H    -5.096000000    -0.142000000    -0.354000000
O    -0.286000000    -2.608000000    -3.713000000
H     0.124000000    -2.735000000    -4.569000000
H    -0.229000000    -1.665000000    -3.559000000
O     0.557000000     1.636000000     7.723000000
H     0.544000000     0.832000000     7.205000000
H     1.485000000     1.865000000     7.786000000
O    -1.834000000     1.012000000     4.026000000
H    -1.580000000     1.894000000     3.753000000
H    -2.198000000     1.128000000     4.904000000
O    -2.995000000    -2.592000000    -3.103000000
H    -2.730000000    -2.530000000    -2.185000000
H    -2.171000000    -2.641000000    -3.587000000
O     2.798000000     1.415000000    -0.298000000
H     2.386000000     2.278000000    -0.258000000
H     2.102000000     0.806000000    -0.054000000
O    -2.381000000    -2.036000000    -0.177000000
H    -2.980000000    -1.814000000     0.537000000
H    -1.589000000    -1.532000000     0.011000000
O    -1.416000000     3.346000000    -7.065000000
H    -1.288000000     3.413000000    -8.011000000
H    -2.364000000     3.274000000    -6.956000000
O     2.785000000     1.876000000     2.618000000
H     2.340000000     2.324000000     1.899000000
H     2.901000000     0.978000000     2.306000000
O    -0.640000000    -3.809000000     7.170000000
H    -1.189000000    -3.811000000     6.386000000
H    -0.902000000    -4.596000000     7.648000000
O     3.362000000    -0.951000000     2.101000000
H     3.945000000    -1.264000000     1.410000000
H     3.129000000    -1.738000000     2.593000000
O     5.398000000     1.756000000     0.490000000
H     5.594000000     1.179000000     1.229000000
H     4.470000000     1.608000000     0.310000000
O     0.122000000    -4.353000000    -1.310000000
H     0.033000000    -3.848000000    -2.118000000
H    -0.721000000    -4.795000000    -1.210000000
O     0.610000000     0.208000000     4.888000000
H    -0.200000000     0.397000000     4.415000000
H     0.450000000    -0.636000000     5.309000000
O     3.845000000    -2.457000000    -2.066000000
H     4.458000000    -2.535000000    -1.335000000
H     4.180000000    -1.724000000    -2.583000000
O    -1.097000000     3.559000000     2.837000000
H    -0.643000000     4.388000000     2.988000000
H    -1.299000000     3.563000000     1.901000000
O     3.848000000     3.472000000    -4.200000000
H     3.165000000     2.803000000    -4.231000000
H     3.652000000     3.978000000    -3.412000000
O    -6.376000000     3.827000000    -2.748000000
H    -6.393000000     4.550000000    -2.122000000
H    -5.481000000     3.492000000    -2.704000000
O    -4.036000000     2.078000000    -2.713000000
H    -3.182000000     1.741000000    -2.983000000
H    -4.506000000     1.310000000    -2.390000000
O    -5.303000000    -1.071000000     1.500000000
H    -5.841000000    -1.500000000     2.165000000
H    -4.455000000    -0.941000000     1.925000000
O    -6.601000000     2.505000000     1.564000000
H    -6.370000000     1.646000000     1.917000000
H    -5.792000000     2.825000000     1.164000000
O    -4.087000000     1.282000000    -7.100000000
H    -4.896000000     0.836000000    -7.352000000
H    -3.935000000     1.007000000    -6.196000000
O     1.348000000     3.755000000     0.265000000
H     1.508000000     4.530000000     0.803000000
H     1.234000000     4.098000000    -0.622000000
O     3.634000000    -3.299000000     3.801000000
H     3.547000000    -2.694000000     4.538000000
H     4.331000000    -3.899000000     4.066000000
O     0.028000000    -2.659000000    -6.395000000
H    -0.914000000    -2.824000000    -6.418000000
H     0.166000000    -1.966000000    -7.041000000
O     0.258000000     5.024000000    -2.033000000
H    -0.299000000     4.737000000    -2.757000000
H     1.134000000     5.086000000    -2.415000000
O    -2.781000000    -1.015000000     2.469000000
H    -2.051000000    -1.622000000     2.353000000
H    -2.378000000    -0.219000000     2.817000000
O    -4.155000000     2.983000000     0.027000000
H    -3.367000000     3.518000000     0.118000000
H    -3.871000000     2.221000000    -0.478000000
O     3.228000000     0.420000000     5.159000000
H     2.335000000     0.077000000     5.189000000
H     3.327000000     0.754000000     4.267000000
O     2.592000000    -5.244000000    -0.410000000
H     3.284000000    -5.100000000    -1.055000000
H     1.849000000    -4.738000000    -0.739000000
O    -0.945000000     3.972000000    -4.158000000
H    -1.056000000     3.090000000    -3.802000000
H    -0.982000000     3.854000000    -5.107000000
