158
-3041.22736
C    -0.253000000     1.468000000     0.231000000
H    -0.458000000     2.516000000     0.434000000
C    -0.096000000     0.491000000     1.248000000
H    -0.061000000     0.693000000     2.315000000
C     0.111000000    -0.811000000     0.915000000
H     0.315000000    -1.619000000     1.654000000
C     0.227000000    -1.208000000    -0.434000000
H     0.517000000    -2.226000000    -0.679000000
C     0.043000000    -0.274000000    -1.454000000
H     0.106000000    -0.600000000    -2.489000000
C    -0.128000000     1.081000000    -1.089000000
C    -0.251000000     2.114000000    -2.220000000
O     0.072000000     3.314000000    -2.057000000
O    -0.539000000     1.735000000    -3.305000000
O    -1.934000000    -0.199000000    -5.813000000
H    -1.117000000    -0.154000000    -5.316000000
H    -1.990000000     0.646000000    -6.259000000
O    -0.170000000     4.767000000     1.887000000
H    -0.504000000     5.570000000     2.288000000
H     0.174000000     5.047000000     1.039000000
O     1.217000000    -1.657000000    -4.817000000
H     1.670000000    -2.188000000    -4.162000000
H     1.147000000    -2.229000000    -5.582000000
O     1.122000000     1.196000000    -5.327000000
H     0.412000000     1.440000000    -4.733000000
H     1.407000000     0.336000000    -5.018000000
O    -1.740000000     2.072000000    -7.272000000
H    -0.943000000     1.918000000    -7.779000000
H    -2.108000000     2.874000000    -7.642000000
O     1.172000000     3.766000000    -6.786000000
H     1.058000000     2.828000000    -6.630000000
H     2.026000000     3.970000000    -6.405000000
O     4.375000000    -2.061000000     2.324000000
H     4.142000000    -1.141000000     2.196000000
H     5.298000000    -2.042000000     2.574000000
O     2.090000000    -3.258000000    -2.875000000
H     2.676000000    -3.132000000    -2.129000000
H     1.356000000    -3.760000000    -2.521000000
O     1.660000000    -2.032000000     6.989000000
H     2.221000000    -1.556000000     6.376000000
H     1.345000000    -2.785000000     6.489000000
O    -3.336000000    -2.211000000     6.363000000
H    -2.935000000    -1.481000000     6.834000000
H    -2.873000000    -2.986000000     6.684000000
O     1.173000000    -5.054000000     3.102000000
H     1.049000000    -4.360000000     3.749000000
H     0.431000000    -4.962000000     2.505000000
O     3.977000000     0.003000000    -1.085000000
H     4.330000000    -0.040000000    -1.974000000
H     3.034000000     0.109000000    -1.207000000
O    -4.197000000    -0.580000000    -4.339000000
H    -4.460000000    -1.333000000    -4.867000000
H    -3.406000000    -0.252000000    -4.767000000
O    -4.910000000     2.043000000    -3.444000000
H    -4.881000000     1.183000000    -3.863000000
H    -4.074000000     2.449000000    -3.673000000
O    -2.149000000     4.656000000    -1.183000000
H    -1.252000000     4.636000000    -0.849000000
H    -2.076000000     4.342000000    -2.084000000
O    -2.242000000    -3.669000000     3.693000000
H    -2.335000000    -2.730000000     3.536000000
H    -2.284000000    -4.063000000     2.821000000
O    -0.631000000     7.886000000    -0.446000000
H    -0.969000000     7.798000000     0.445000000
H    -0.298000000     7.016000000    -0.664000000
O     4.677000000     4.466000000    -2.248000000
H     4.250000000     5.313000000    -2.122000000
H     3.966000000     3.872000000    -2.490000000
O    -3.669000000    -5.222000000     5.639000000
H    -3.630000000    -6.090000000     5.239000000
H    -3.457000000    -4.620000000     4.926000000
O    -3.891000000    -0.459000000    -1.580000000
H    -3.995000000    -0.573000000    -2.524000000
H    -4.771000000    -0.251000000    -1.266000000
O     3.985000000    -3.477000000    -4.931000000
H     3.508000000    -3.546000000    -4.104000000
H     3.442000000    -3.951000000    -5.560000000
O    -0.626000000    -4.809000000    -2.790000000
H    -1.509000000    -4.511000000    -2.571000000
H    -0.631000000    -4.891000000    -3.744000000
O    -2.244000000     1.117000000     4.961000000
H    -2.238000000     1.970000000     4.529000000
H    -2.478000000     1.310000000     5.869000000
O     3.567000000     0.936000000     1.791000000
H     2.887000000     1.115000000     2.441000000
H     3.164000000     1.165000000     0.954000000
O    -2.652000000    -1.626000000     0.511000000
H    -1.975000000    -0.996000000     0.761000000
H    -2.989000000    -1.296000000    -0.322000000
O    -1.172000000     4.819000000    -5.885000000
H    -0.321000000     4.393000000    -5.982000000
H    -1.572000000     4.756000000    -6.752000000
O     1.877000000     3.320000000     5.301000000
H     2.046000000     3.094000000     4.386000000
H     2.204000000     2.570000000     5.797000000
O    -0.516000000    -4.282000000     0.920000000
H    -0.226000000    -4.863000000     0.216000000
H    -0.998000000    -3.586000000     0.473000000
O     0.378000000    -3.618000000     5.266000000
H    -0.420000000    -3.817000000     4.775000000
H     0.683000000    -4.469000000     5.581000000
O     4.021000000    -3.116000000    -0.707000000
H     3.868000000    -3.088000000     0.238000000
H     4.015000000    -2.198000000    -0.978000000
O     3.158000000     6.783000000    -1.785000000
H     2.717000000     7.424000000    -2.343000000
H     3.995000000     7.191000000    -1.566000000
O    -1.032000000     3.760000000     4.356000000
H    -0.614000000     4.166000000     5.116000000
H    -0.322000000     3.650000000     3.723000000
O     2.005000000     3.649000000    -3.809000000
H     1.718000000     3.058000000    -4.505000000
H     1.265000000     3.682000000    -3.203000000
O    -5.831000000     1.609000000     0.766000000
H    -6.095000000     1.965000000     1.615000000
H    -4.972000000     1.998000000     0.600000000
O    -3.497000000     2.540000000    -0.167000000
H    -3.118000000     3.271000000    -0.657000000
H    -3.410000000     1.789000000    -0.754000000
O     2.636000000    -6.202000000    -1.337000000
H     1.708000000    -6.376000000    -1.177000000
H     2.925000000    -5.720000000    -0.562000000
O    -5.638000000    -2.075000000     1.750000000
H    -5.941000000    -2.717000000     2.392000000
H    -4.844000000    -1.706000000     2.137000000
O     2.050000000     3.506000000     2.567000000
H     2.486000000     4.342000000     2.401000000
H     1.144000000     3.651000000     2.296000000
O     4.098000000    -3.512000000     5.981000000
H     3.570000000    -3.971000000     5.328000000
H     4.488000000    -4.209000000     6.508000000
O     0.706000000     5.353000000    -0.734000000
H     0.390000000     4.746000000    -1.403000000
H     1.603000000     5.556000000    -0.999000000
O    -3.939000000    -0.883000000     4.069000000
H    -3.810000000    -1.458000000     4.824000000
H    -3.312000000    -0.172000000     4.201000000
O     2.890000000    -6.518000000     4.996000000
H     2.336000000    -6.262000000     5.734000000
H     2.413000000    -6.216000000     4.223000000
O    -3.407000000     3.406000000     2.843000000
H    -2.623000000     3.764000000     3.260000000
H    -3.124000000     3.178000000     1.957000000
O     3.826000000     4.526000000    -5.788000000
H     3.631000000     5.455000000    -5.909000000
H     3.419000000     4.304000000    -4.950000000
O     0.780000000     1.044000000    -8.087000000
H     0.383000000     0.207000000    -8.329000000
H     1.097000000     0.909000000    -7.194000000
O    -2.626000000     3.366000000    -3.979000000
H    -1.897000000     2.793000000    -3.742000000
H    -2.306000000     3.862000000    -4.733000000
O    -4.176000000     6.704000000    -1.318000000
H    -3.543000000     5.995000000    -1.201000000
H    -3.823000000     7.429000000    -0.802000000
O    -4.207000000    -4.052000000    -0.080000000
H    -3.854000000    -3.175000000    -0.229000000
H    -5.055000000    -3.901000000     0.339000000
