158
-2974.80409
C     0.254000000     0.055000000     1.528000000
H     0.247000000     0.048000000     2.615000000
C    -0.450000000    -0.961000000     0.878000000
H    -0.799000000    -1.866000000     1.370000000
C    -0.565000000    -1.037000000    -0.506000000
H    -1.016000000    -1.865000000    -1.139000000
C    -0.067000000     0.069000000    -1.173000000
H     0.007000000     0.053000000    -2.257000000
C     0.529000000     1.186000000    -0.592000000
H     0.803000000     2.042000000    -1.203000000
C     0.667000000     1.165000000     0.772000000
C     1.305000000     2.402000000     1.452000000
O     1.651000000     2.417000000     2.609000000
O     1.455000000     3.411000000     0.817000000
O     1.006000000     5.246000000     5.639000000
H     0.277000000     4.635000000     5.746000000
H     1.788000000     4.695000000     5.675000000
O    -3.737000000    -3.836000000    -4.905000000
H    -3.694000000    -3.553000000    -3.992000000
H    -4.606000000    -4.226000000    -4.994000000
O    -0.748000000     4.519000000    -0.141000000
H     0.079000000     4.241000000     0.254000000
H    -0.667000000     4.273000000    -1.063000000
O     6.991000000     1.429000000     3.552000000
H     7.283000000     1.987000000     4.273000000
H     6.096000000     1.719000000     3.373000000
O    -1.815000000     6.196000000     3.589000000
H    -0.939000000     5.943000000     3.879000000
H    -2.164000000     5.410000000     3.168000000
O    -1.743000000    -2.406000000     4.442000000
H    -1.650000000    -3.356000000     4.372000000
H    -0.868000000    -2.065000000     4.255000000
O     0.725000000    -2.546000000     7.140000000
H     0.561000000    -2.355000000     6.216000000
H     1.529000000    -2.068000000     7.344000000
O     5.051000000     4.260000000     1.801000000
H     4.805000000     3.465000000     2.274000000
H     4.591000000     4.963000000     2.259000000
O     3.979000000     0.381000000    -3.526000000
H     3.789000000    -0.278000000    -2.859000000
H     4.341000000     1.120000000    -3.036000000
O     2.207000000     2.050000000     6.771000000
H     3.108000000     2.258000000     7.015000000
H     1.959000000     1.335000000     7.357000000
O     2.766000000    -1.643000000    -1.253000000
H     1.817000000    -1.516000000    -1.248000000
H     2.904000000    -2.436000000    -0.734000000
O    -6.588000000    -1.244000000    -2.571000000
H    -6.124000000    -1.444000000    -1.758000000
H    -7.399000000    -1.749000000    -2.514000000
O    -2.519000000     2.591000000     0.940000000
H    -2.694000000     1.826000000     0.393000000
H    -1.962000000     3.151000000     0.398000000
O    -0.157000000     2.194000000     4.726000000
H     0.425000000     2.187000000     5.486000000
H     0.390000000     2.515000000     4.009000000
O     4.326000000    -0.527000000     3.734000000
H     5.118000000    -0.695000000     4.244000000
H     4.374000000    -1.147000000     3.006000000
O    -1.523000000     7.019000000    -1.316000000
H    -1.570000000     6.299000000    -0.687000000
H    -2.432000000     7.168000000    -1.578000000
O    -1.804000000    -4.985000000    -1.442000000
H    -1.123000000    -5.274000000    -0.834000000
H    -2.022000000    -5.768000000    -1.947000000
O     4.540000000     6.317000000     3.882000000
H     3.634000000     6.071000000     3.692000000
H     4.696000000     5.991000000     4.768000000
O    -5.043000000     1.716000000    -4.426000000
H    -4.436000000     1.104000000    -4.010000000
H    -5.079000000     1.433000000    -5.340000000
O    -2.785000000     0.196000000    -3.311000000
H    -2.149000000    -0.095000000    -3.966000000
H    -2.826000000    -0.524000000    -2.681000000
O    -2.967000000    -3.539000000     1.283000000
H    -3.285000000    -4.014000000     2.051000000
H    -2.550000000    -4.210000000     0.742000000
O    -3.425000000    -2.731000000    -2.387000000
H    -2.994000000    -3.489000000    -1.992000000
H    -4.123000000    -2.505000000    -1.771000000
O     3.104000000    -3.761000000     0.861000000
H     2.324000000    -3.547000000     1.372000000
H     2.877000000    -4.571000000     0.404000000
O    -0.071000000    -4.929000000    -3.711000000
H    -0.666000000    -4.797000000    -2.973000000
H     0.287000000    -4.059000000    -3.889000000
O     1.524000000     1.730000000    -5.390000000
H     1.055000000     1.730000000    -6.224000000
H     1.314000000     0.882000000    -4.997000000
O     3.721000000     6.284000000    -3.160000000
H     2.843000000     6.633000000    -3.317000000
H     3.573000000     5.380000000    -2.883000000
O     4.101000000     2.123000000     3.503000000
H     3.969000000     1.203000000     3.732000000
H     3.254000000     2.409000000     3.162000000
O    -3.227000000     0.039000000     0.075000000
H    -3.731000000     0.021000000     0.888000000
H    -2.396000000    -0.380000000     0.299000000
O     5.425000000     6.198000000    -0.164000000
H     5.488000000     5.385000000     0.338000000
H     4.622000000     6.102000000    -0.674000000
O     1.837000000    -5.041000000     3.074000000
H     2.759000000    -4.808000000     2.966000000
H     1.847000000    -5.783000000     3.679000000
O    -1.556000000    -5.029000000    -6.578000000
H    -1.917000000    -4.952000000    -5.695000000
H    -2.315000000    -5.212000000    -7.132000000
O     4.306000000     0.902000000     0.733000000
H     3.603000000     0.930000000     1.382000000
H     4.699000000     0.036000000     0.843000000
O    -5.075000000    -2.522000000     0.031000000
H    -4.291000000    -2.762000000     0.524000000
H    -5.650000000    -3.283000000     0.110000000
O     5.039000000     2.378000000    -1.239000000
H     4.368000000     2.930000000    -1.641000000
H     4.595000000     1.962000000    -0.499000000
O    -0.256000000    -5.575000000     0.800000000
H     0.299000000    -5.218000000     1.494000000
H    -0.588000000    -6.398000000     1.158000000
O     1.667000000    -2.202000000    -5.929000000
H     2.150000000    -2.979000000    -6.212000000
H     1.156000000    -1.946000000    -6.696000000
O     1.046000000     3.686000000    -3.301000000
H     0.877000000     4.288000000    -4.026000000
H     1.115000000     2.826000000    -3.714000000
O    -7.011000000    -0.540000000     0.506000000
H    -6.337000000    -1.179000000     0.739000000
H    -7.825000000    -0.917000000     0.842000000
O    -2.673000000     1.697000000     3.793000000
H    -1.772000000     1.733000000     4.113000000
H    -2.607000000     1.927000000     2.866000000
O     2.523000000    -6.583000000     0.106000000
H     2.329000000    -7.137000000     0.862000000
H     1.905000000    -6.870000000    -0.567000000
O     1.537000000    -0.691000000     4.675000000
H     1.322000000     0.186000000     4.355000000
H     2.494000000    -0.704000000     4.712000000
O    -1.212000000     0.029000000    -5.586000000
H    -1.221000000     0.844000000    -6.088000000
H    -1.108000000    -0.658000000    -6.245000000
O    -1.378000000    -5.069000000     3.892000000
H    -0.783000000    -5.656000000     3.426000000
H    -1.860000000    -5.641000000     4.488000000
O     2.259000000     5.618000000     2.454000000
H     2.008000000     4.752000000     2.132000000
H     1.544000000     6.192000000     2.180000000
O    -4.092000000    -0.745000000     2.947000000
H    -3.585000000    -0.036000000     3.342000000
H    -3.560000000    -1.528000000     3.089000000
O    -5.477000000     1.651000000    -0.191000000
H    -4.633000000     1.220000000    -0.325000000
H    -6.125000000     0.965000000    -0.355000000
O    -1.869000000     2.492000000    -1.963000000
H    -2.350000000     1.854000000    -2.489000000
H    -1.107000000     2.012000000    -1.641000000
O     2.891000000     4.038000000    -1.357000000
H     2.501000000     3.932000000    -0.489000000
H     2.166000000     3.887000000    -1.965000000
