158
-3033.95940
C    -1.209000000     0.252000000    -0.742000000
H    -2.157000000     0.393000000    -1.255000000
C    -1.070000000     0.119000000     0.637000000
H    -2.002000000     0.253000000     1.180000000
C     0.162000000    -0.090000000     1.242000000
H     0.176000000    -0.219000000     2.296000000
C     1.260000000    -0.337000000     0.430000000
H     2.138000000    -0.780000000     0.893000000
C     1.131000000    -0.209000000    -0.970000000
H     1.970000000    -0.493000000    -1.601000000
C    -0.109000000     0.130000000    -1.572000000
C    -0.215000000     0.317000000    -3.105000000
O    -1.262000000     0.628000000    -3.581000000
O     0.803000000     0.454000000    -3.765000000
O    -0.869000000     3.279000000    -0.351000000
H    -0.836000000     3.331000000     0.604000000
H     0.033000000     3.096000000    -0.613000000
O     3.563000000    -1.139000000    -7.519000000
H     3.186000000    -0.938000000    -6.663000000
H     4.333000000    -0.573000000    -7.580000000
O     3.539000000     0.348000000    -4.128000000
H     2.675000000     0.743000000    -4.012000000
H     3.499000000    -0.467000000    -3.628000000
O     1.095000000     0.910000000    -6.371000000
H     0.820000000     0.762000000    -5.466000000
H     0.411000000     1.467000000    -6.742000000
O     3.161000000     2.447000000    -7.801000000
H     3.986000000     2.001000000    -7.992000000
H     2.627000000     1.786000000    -7.360000000
O    -7.160000000     0.359000000    -1.552000000
H    -6.532000000     0.451000000    -0.836000000
H    -6.976000000     1.100000000    -2.129000000
O     4.663000000    -2.923000000    -0.715000000
H     3.959000000    -3.192000000    -0.125000000
H     5.467000000    -3.130000000    -0.239000000
O     3.916000000    -3.617000000    -4.349000000
H     4.385000000    -3.092000000    -3.700000000
H     3.146000000    -3.092000000    -4.570000000
O     4.217000000    -3.523000000     5.426000000
H     4.431000000    -3.112000000     6.264000000
H     3.909000000    -2.803000000     4.877000000
O     2.144000000    -3.675000000     0.771000000
H     1.294000000    -3.385000000     1.103000000
H     1.937000000    -4.163000000    -0.025000000
O    -2.307000000     3.401000000     4.556000000
H    -1.876000000     3.588000000     5.390000000
H    -1.828000000     3.927000000     3.916000000
O    -5.137000000    -2.425000000    -2.701000000
H    -4.958000000    -2.858000000    -3.536000000
H    -4.464000000    -1.747000000    -2.634000000
O    -2.625000000     1.565000000    -5.763000000
H    -2.212000000     1.549000000    -4.899000000
H    -3.033000000     0.704000000    -5.849000000
O    -0.434000000    -3.286000000     2.200000000
H    -0.926000000    -3.794000000     1.555000000
H    -1.103000000    -2.920000000     2.778000000
O     4.832000000     2.323000000     4.977000000
H     4.950000000     2.548000000     4.054000000
H     3.939000000     1.981000000     5.028000000
O     0.203000000    -3.459000000     5.441000000
H    -0.688000000    -3.789000000     5.559000000
H     0.710000000    -4.226000000     5.177000000
O    -1.828000000    -0.776000000    -7.679000000
H    -2.720000000    -0.741000000    -7.334000000
H    -1.461000000     0.086000000    -7.482000000
O    -4.669000000     1.245000000     0.466000000
H    -4.156000000     0.628000000    -0.055000000
H    -4.859000000     0.773000000     1.277000000
O     1.709000000    -1.904000000    -4.895000000
H     0.851000000    -2.055000000    -5.291000000
H     1.706000000    -0.976000000    -4.663000000
O     1.233000000     0.091000000     6.873000000
H     1.480000000     1.013000000     6.794000000
H     1.559000000    -0.171000000     7.734000000
O    -2.783000000     0.871000000     3.896000000
H    -2.624000000     1.812000000     3.976000000
H    -2.177000000     0.472000000     4.521000000
O     5.543000000    -1.363000000     2.517000000
H     4.736000000    -1.783000000     2.816000000
H     6.233000000    -1.771000000     3.040000000
O    -5.156000000    -0.064000000     2.753000000
H    -4.382000000    -0.061000000     3.316000000
H    -5.213000000    -0.962000000     2.429000000
O     4.481000000     2.532000000     2.261000000
H     3.555000000     2.722000000     2.112000000
H     4.655000000     1.755000000     1.729000000
O    -2.760000000    -1.433000000    -3.293000000
H    -2.133000000    -2.039000000    -3.689000000
H    -2.322000000    -0.583000000    -3.321000000
O    -0.309000000     3.265000000    -6.320000000
H    -1.241000000     3.132000000    -6.144000000
H    -0.269000000     3.480000000    -7.252000000
O     2.193000000     1.760000000     4.441000000
H     2.108000000     2.087000000     3.546000000
H     1.918000000     0.845000000     4.389000000
O     4.799000000     0.385000000     0.549000000
H     5.222000000    -0.158000000     1.214000000
H     3.866000000     0.187000000     0.635000000
O    -1.330000000    -3.652000000    -1.345000000
H    -0.509000000    -3.350000000    -0.956000000
H    -1.103000000    -3.864000000    -2.250000000
O    -6.124000000     0.346000000    -5.006000000
H    -6.760000000    -0.263000000    -4.631000000
H    -5.490000000     0.494000000    -4.304000000
O     1.203000000    -1.105000000     4.407000000
H     1.438000000    -0.767000000     5.270000000
H     0.449000000    -1.673000000     4.569000000
O     5.494000000    -1.627000000    -2.984000000
H     5.311000000    -1.919000000    -2.091000000
H     5.674000000    -0.691000000    -2.897000000
O     1.347000000     3.820000000     5.796000000
H     1.683000000     3.036000000     5.361000000
H     2.097000000     4.414000000     5.832000000
O    -1.144000000     3.759000000     7.121000000
H    -1.058000000     4.117000000     8.004000000
H    -0.246000000     3.559000000     6.855000000
O     3.907000000     3.191000000    -4.114000000
H     4.028000000     2.252000000    -4.257000000
H     2.959000000     3.319000000    -4.159000000
O    -1.181000000    -0.100000000     5.878000000
H    -0.247000000    -0.271000000     5.998000000
H    -1.583000000    -0.376000000     6.701000000
O    -4.311000000     1.030000000    -3.164000000
H    -4.882000000     1.689000000    -2.769000000
H    -3.492000000     1.495000000    -3.338000000
O    -2.018000000     3.243000000    -2.796000000
H    -1.458000000     2.491000000    -2.986000000
H    -1.689000000     3.582000000    -1.963000000
O    -6.087000000    -1.609000000     0.458000000
H    -6.919000000    -1.991000000     0.738000000
H    -6.012000000    -1.849000000    -0.465000000
O    -3.869000000     3.649000000    -7.285000000
H    -3.622000000     3.004000000    -6.622000000
H    -3.952000000     4.470000000    -6.801000000
O     1.453000000     2.978000000     2.151000000
H     0.982000000     3.803000000     2.269000000
H     0.832000000     2.412000000     1.693000000
O     1.762000000     3.246000000    -1.035000000
H     2.171000000     2.891000000    -1.824000000
H     2.453000000     3.758000000    -0.615000000
O    -2.753000000    -2.090000000     4.064000000
H    -2.920000000    -2.604000000     4.854000000
H    -2.200000000    -1.367000000     4.362000000
O    -4.128000000     3.960000000     0.160000000
H    -3.226000000     4.019000000     0.475000000
H    -4.418000000     3.087000000     0.425000000
O     3.154000000    -2.425000000     2.981000000
H     2.309000000    -2.073000000     3.261000000
H     2.935000000    -3.065000000     2.305000000
O    -4.000000000    -0.801000000    -6.120000000
H    -4.181000000    -1.731000000    -5.985000000
H    -4.779000000    -0.355000000    -5.789000000
O     1.588000000    -5.155000000    -1.402000000
H     1.288000000    -6.063000000    -1.370000000
H     1.579000000    -4.933000000    -2.334000000
O     1.084000000     3.230000000    -4.145000000
H     0.916000000     2.375000000    -3.749000000
H     0.559000000     3.229000000    -4.946000000
