158
-3005.73262
C    -1.200000000     0.266000000    -0.770000000
H    -2.169000000     0.525000000    -1.191000000
C    -1.092000000     0.394000000     0.636000000
H    -1.901000000     0.811000000     1.230000000
C     0.118000000     0.130000000     1.224000000
H     0.244000000     0.180000000     2.267000000
C     1.190000000    -0.253000000     0.428000000
H     2.164000000    -0.506000000     0.840000000
C     1.052000000    -0.314000000    -0.961000000
H     1.865000000    -0.625000000    -1.612000000
C    -0.172000000    -0.176000000    -1.589000000
C    -0.341000000    -0.359000000    -3.080000000
O    -1.442000000    -0.421000000    -3.476000000
O     0.668000000    -0.503000000    -3.737000000
O    -1.765000000    -4.199000000    -5.056000000
H    -1.512000000    -5.122000000    -5.029000000
H    -1.892000000    -4.012000000    -5.986000000
O    -0.836000000     3.495000000     0.944000000
H    -0.678000000     3.573000000     1.885000000
H    -0.255000000     2.789000000     0.661000000
O     3.120000000    -0.214000000    -4.118000000
H     2.176000000    -0.359000000    -4.179000000
H     3.386000000    -0.692000000    -3.333000000
O     0.062000000     0.737000000    -6.044000000
H     0.240000000     0.369000000    -5.179000000
H    -0.890000000     0.689000000    -6.133000000
O     4.552000000    -3.919000000    -1.373000000
H     3.962000000    -4.543000000    -0.951000000
H     5.424000000    -4.169000000    -1.066000000
O     3.584000000    -3.378000000    -4.013000000
H     2.663000000    -3.347000000    -4.272000000
H     3.596000000    -3.940000000    -3.239000000
O    -1.398000000     5.267000000     5.487000000
H    -1.175000000     4.658000000     4.783000000
H    -1.818000000     6.004000000     5.043000000
O    -2.199000000     4.614000000    -1.131000000
H    -1.750000000     4.208000000    -0.389000000
H    -1.689000000     4.347000000    -1.895000000
O    -5.785000000    -2.755000000    -2.872000000
H    -5.724000000    -3.673000000    -3.134000000
H    -4.916000000    -2.397000000    -3.051000000
O    -2.659000000     0.084000000    -5.996000000
H    -2.409000000    -0.251000000    -5.135000000
H    -2.995000000    -0.681000000    -6.463000000
O     0.698000000    -2.925000000     1.929000000
H     1.232000000    -2.454000000     1.288000000
H     0.787000000    -3.846000000     1.683000000
O     6.201000000    -0.325000000     4.439000000
H     6.083000000     0.461000000     4.974000000
H     5.366000000    -0.434000000     3.986000000
O    -4.168000000    -1.277000000     0.160000000
H    -5.101000000    -1.340000000     0.364000000
H    -4.103000000    -0.534000000    -0.439000000
O     0.924000000    -3.144000000    -4.566000000
H     1.070000000    -2.444000000    -3.929000000
H    -0.028000000    -3.246000000    -4.596000000
O     0.891000000    -1.569000000     5.502000000
H     1.092000000    -0.667000000     5.255000000
H     1.314000000    -1.685000000     6.352000000
O    -3.039000000    -0.049000000     3.968000000
H    -2.459000000    -0.728000000     3.624000000
H    -2.467000000     0.513000000     4.490000000
O    -5.531000000     0.491000000     2.823000000
H    -5.962000000    -0.230000000     3.283000000
H    -4.614000000     0.431000000     3.090000000
O     5.664000000     1.363000000     1.712000000
H     4.883000000     1.182000000     2.235000000
H     5.733000000     0.615000000     1.119000000
O    -4.675000000     3.852000000    -2.186000000
H    -3.833000000     3.903000000    -1.734000000
H    -5.299000000     4.241000000    -1.574000000
O    -3.134000000    -2.358000000    -3.816000000
H    -2.667000000    -2.865000000    -4.479000000
H    -2.610000000    -1.564000000    -3.709000000
O    -1.303000000     3.714000000    -4.575000000
H    -0.738000000     3.388000000    -5.276000000
H    -1.643000000     4.544000000    -4.908000000
O     3.747000000    -0.848000000     3.263000000
H     2.971000000    -1.136000000     2.783000000
H     4.105000000    -1.651000000     3.642000000
O    -0.174000000     4.090000000     3.422000000
H     0.226000000     4.935000000     3.218000000
H     0.559000000     3.534000000     3.686000000
O     5.802000000    -1.459000000     0.697000000
H     6.544000000    -1.345000000     1.291000000
H     5.656000000    -2.405000000     0.674000000
O    -2.684000000    -4.672000000    -1.931000000
H    -2.776000000    -3.960000000    -2.564000000
H    -2.364000000    -4.246000000    -1.136000000
O     3.058000000    -3.276000000     4.238000000
H     2.264000000    -2.897000000     4.614000000
H     2.970000000    -4.217000000     4.393000000
O     4.372000000    -1.380000000    -2.028000000
H     5.124000000    -1.267000000    -1.447000000
H     4.195000000    -2.320000000    -2.010000000
O     4.627000000     2.413000000    -0.663000000
H     4.566000000     3.365000000    -0.587000000
H     5.099000000     2.139000000     0.123000000
O     1.338000000     1.136000000     5.433000000
H     1.684000000     1.613000000     4.679000000
H     2.058000000     1.131000000     6.064000000
O    -1.454000000     1.549000000     5.260000000
H    -1.402000000     1.349000000     6.195000000
H    -0.558000000     1.438000000     4.941000000
O     2.913000000     2.295000000    -2.912000000
H     2.832000000     1.368000000    -3.134000000
H     3.712000000     2.346000000    -2.387000000
O    -1.287000000    -4.123000000     6.121000000
H    -0.680000000    -3.445000000     6.417000000
H    -1.248000000    -4.794000000     6.803000000
O    -3.368000000    -3.865000000     4.319000000
H    -2.564000000    -4.076000000     4.794000000
H    -3.311000000    -2.923000000     4.160000000
O    -5.168000000     1.299000000    -6.034000000
H    -4.733000000     0.474000000    -5.822000000
H    -5.715000000     1.485000000    -5.271000000
O    -4.534000000     0.773000000    -1.663000000
H    -5.232000000     0.744000000    -2.317000000
H    -3.861000000     1.330000000    -2.054000000
O    -2.916000000     1.894000000    -3.513000000
H    -2.344000000     1.132000000    -3.412000000
H    -2.424000000     2.490000000    -4.077000000
O     0.677000000     3.433000000    -6.719000000
H     0.560000000     2.487000000    -6.631000000
H     1.138000000     3.540000000    -7.551000000
O    -7.364000000     1.010000000    -0.042000000
H    -6.442000000     1.238000000     0.080000000
H    -7.656000000     1.572000000    -0.760000000
O    -3.864000000     3.138000000     5.357000000
H    -3.243000000     2.464000000     5.080000000
H    -3.315000000     3.858000000     5.666000000
O     2.019000000     2.701000000     3.421000000
H     2.891000000     2.982000000     3.698000000
H     2.015000000     2.830000000     2.473000000
O     2.119000000     2.888000000     0.501000000
H     2.652000000     2.530000000    -0.209000000
H     2.258000000     3.834000000     0.451000000
O    -0.992000000    -1.711000000     3.775000000
H    -0.309000000    -1.900000000     3.131000000
H    -0.527000000    -1.666000000     4.610000000
O    -4.140000000     2.840000000     1.090000000
H    -4.458000000     2.197000000     1.724000000
H    -4.132000000     2.371000000     0.256000000
O     3.848000000    -4.282000000     1.676000000
H     3.511000000    -3.982000000     2.520000000
H     4.526000000    -4.919000000     1.902000000
O     4.788000000     0.873000000    -5.902000000
H     4.055000000     0.550000000    -5.378000000
H     5.107000000     0.101000000    -6.370000000
O     1.734000000    -0.524000000    -8.088000000
H     1.336000000    -1.386000000    -7.971000000
H     1.611000000    -0.087000000    -7.245000000
O     1.387000000     4.473000000    -3.066000000
H     1.908000000     3.714000000    -2.804000000
H     0.616000000     4.098000000    -3.493000000
O    -1.777000000    -2.991000000     0.263000000
H    -2.582000000    -2.488000000     0.381000000
H    -1.078000000    -2.338000000     0.306000000
