158
-3061.70811
C     0.807000000     0.314000000     1.234000000
H     1.350000000     0.470000000     2.162000000
C     0.532000000    -0.942000000     0.661000000
H     0.839000000    -1.792000000     1.264000000
C    -0.240000000    -1.110000000    -0.454000000
H    -0.494000000    -2.104000000    -0.784000000
C    -0.651000000    -0.025000000    -1.099000000
H    -1.129000000    -0.113000000    -2.071000000
C    -0.383000000     1.256000000    -0.669000000
H    -0.705000000     2.107000000    -1.265000000
C     0.348000000     1.448000000     0.521000000
C     0.545000000     2.817000000     1.045000000
O     0.782000000     3.001000000     2.247000000
O     0.535000000     3.770000000     0.240000000
O     1.597000000    -0.688000000    -4.796000000
H     2.032000000    -1.462000000    -5.153000000
H     0.664000000    -0.851000000    -4.935000000
O     2.754000000    -1.504000000     4.165000000
H     2.927000000    -0.569000000     4.274000000
H     3.322000000    -1.770000000     3.442000000
O    -2.039000000     4.547000000    -0.515000000
H    -1.113000000     4.309000000    -0.465000000
H    -2.117000000     5.034000000    -1.336000000
O     3.069000000     1.274000000     4.525000000
H     3.276000000     1.817000000     3.764000000
H     2.511000000     1.829000000     5.070000000
O     1.030000000     7.180000000     5.344000000
H     0.988000000     6.468000000     4.706000000
H     1.023000000     6.741000000     6.194000000
O     0.726000000    -0.858000000     5.882000000
H     1.342000000    -1.303000000     5.301000000
H     0.700000000     0.043000000     5.559000000
O     3.029000000    -3.432000000    -1.051000000
H     2.884000000    -2.517000000    -1.293000000
H     3.981000000    -3.525000000    -1.023000000
O     3.944000000    -2.574000000     1.681000000
H     3.219000000    -2.786000000     1.093000000
H     4.627000000    -2.230000000     1.104000000
O     0.476000000    -4.861000000    -0.703000000
H     1.365000000    -4.506000000    -0.672000000
H     0.489000000    -5.591000000    -0.084000000
O    -4.563000000     0.507000000    -4.058000000
H    -5.073000000     1.312000000    -4.143000000
H    -3.665000000     0.806000000    -3.913000000
O    -4.555000000    -5.943000000    -2.759000000
H    -4.944000000    -5.392000000    -2.080000000
H    -4.525000000    -6.817000000    -2.369000000
O    -5.839000000    -1.733000000    -3.171000000
H    -5.631000000    -1.711000000    -2.237000000
H    -5.411000000    -0.956000000    -3.530000000
O    -1.753000000     3.694000000     2.910000000
H    -0.827000000     3.463000000     2.839000000
H    -2.217000000     2.944000000     2.538000000
O     0.242000000     1.600000000     4.627000000
H    -0.351000000     2.131000000     5.158000000
H     0.647000000     2.223000000     4.024000000
O     1.550000000     6.376000000     0.009000000
H     1.689000000     6.232000000    -0.927000000
H     1.010000000     5.636000000     0.288000000
O    -1.040000000    -2.857000000    -3.252000000
H    -1.519000000    -2.237000000    -3.801000000
H    -1.567000000    -2.930000000    -2.456000000
O    -1.254000000    -7.299000000    -2.637000000
H    -0.614000000    -6.679000000    -2.988000000
H    -0.812000000    -7.699000000    -1.888000000
O     2.511000000    -3.127000000    -5.790000000
H     2.423000000    -3.422000000    -4.883000000
H     1.976000000    -3.740000000    -6.294000000
O    -1.935000000     1.950000000    -4.100000000
H    -1.016000000     1.846000000    -3.855000000
H    -1.924000000     2.601000000    -4.802000000
O    -3.583000000    -2.903000000    -4.808000000
H    -4.327000000    -2.925000000    -4.207000000
H    -3.670000000    -3.704000000    -5.326000000
O     1.325000000    -6.737000000     1.333000000
H     1.975000000    -6.072000000     1.563000000
H     0.951000000    -7.006000000     2.173000000
O    -1.326000000    -1.626000000     3.605000000
H    -0.915000000    -1.380000000     4.433000000
H    -1.726000000    -2.478000000     3.779000000
O     2.568000000    -0.822000000    -2.193000000
H     2.332000000    -0.341000000    -2.986000000
H     1.890000000    -0.586000000    -1.559000000
O     0.728000000     1.634000000    -3.701000000
H     1.108000000     0.961000000    -4.266000000
H     1.483000000     2.060000000    -3.295000000
O    -1.821000000     6.426000000     1.853000000
H    -2.035000000     5.630000000     2.341000000
H    -1.959000000     6.189000000     0.936000000
O     2.200000000     6.035000000    -2.743000000
H     1.869000000     5.852000000    -3.622000000
H     3.033000000     6.483000000    -2.889000000
O     2.961000000     4.104000000     4.925000000
H     3.264000000     4.526000000     5.728000000
H     2.203000000     4.620000000     4.654000000
O    -2.418000000    -0.713000000     1.285000000
H    -1.587000000    -0.432000000     0.902000000
H    -2.188000000    -1.013000000     2.164000000
O     0.328000000    -5.144000000    -3.508000000
H    -0.222000000    -4.456000000    -3.883000000
H     0.330000000    -4.963000000    -2.568000000
O    -4.225000000     4.380000000     1.039000000
H    -3.461000000     4.442000000     0.465000000
H    -4.125000000     3.538000000     1.482000000
O     1.820000000    -4.330000000     2.541000000
H     2.137000000    -3.435000000     2.424000000
H     1.577000000    -4.379000000     3.466000000
O     3.555000000     3.695000000     1.858000000
H     2.630000000     3.703000000     2.103000000
H     4.018000000     3.930000000     2.662000000
O     1.602000000     8.920000000     1.401000000
H     1.275000000     9.557000000     0.766000000
H     1.654000000     8.099000000     0.911000000
O    -4.090000000    -2.434000000    -0.171000000
H    -3.524000000    -3.094000000    -0.570000000
H    -3.496000000    -1.888000000     0.345000000
O     5.189000000     1.927000000     0.782000000
H     4.429000000     2.455000000     1.026000000
H     5.445000000     1.485000000     1.592000000
O    -2.339000000    -4.215000000    -1.144000000
H    -1.400000000    -4.348000000    -1.014000000
H    -2.519000000    -4.604000000    -2.001000000
O     1.589000000     4.341000000    -4.746000000
H     0.740000000     3.901000000    -4.716000000
H     1.674000000     4.636000000    -5.653000000
O     3.120000000    -5.851000000    -2.942000000
H     3.005000000    -5.057000000    -2.421000000
H     2.900000000    -6.564000000    -2.342000000
O    -1.383000000    -0.758000000    -5.295000000
H    -1.796000000    -0.054000000    -4.796000000
H    -2.116000000    -1.270000000    -5.638000000
O     4.504000000     1.595000000    -1.843000000
H     4.888000000     1.723000000    -0.975000000
H     3.609000000     1.925000000    -1.760000000
O     4.282000000     5.407000000    -0.261000000
H     4.083000000     4.639000000     0.275000000
H     3.572000000     6.021000000    -0.072000000
O     0.867000000     5.518000000     3.145000000
H     0.627000000     4.653000000     2.812000000
H     0.523000000     6.130000000     2.494000000
O    -3.319000000    -6.271000000     3.188000000
H    -2.873000000    -6.372000000     4.029000000
H    -2.611000000    -6.190000000     2.549000000
O     5.607000000     0.770000000     3.165000000
H     4.873000000     0.584000000     3.749000000
H     5.982000000     1.584000000     3.503000000
O    -3.584000000     1.679000000     1.994000000
H    -4.470000000     1.317000000     1.980000000
H    -3.023000000     0.951000000     1.727000000
O    -2.466000000     5.191000000    -3.350000000
H    -2.611000000     4.502000000    -3.999000000
H    -3.345000000     5.499000000    -3.128000000
O     2.331000000     3.536000000    -1.736000000
H     1.719000000     3.512000000    -1.000000000
H     2.150000000     4.370000000    -2.170000000
O    -6.017000000     2.515000000    -1.715000000
H    -6.695000000     2.678000000    -1.059000000
H    -5.196000000     2.549000000    -1.224000000
