158
-3045.08655
C     0.306000000     0.207000000     1.453000000
H     0.390000000     0.370000000     2.524000000
C    -0.291000000    -0.916000000     0.977000000
H    -0.568000000    -1.775000000     1.582000000
C    -0.498000000    -1.009000000    -0.372000000
H    -1.035000000    -1.971000000    -0.765000000
C    -0.115000000    -0.011000000    -1.278000000
H    -0.304000000    -0.193000000    -2.333000000
C     0.494000000     1.114000000    -0.818000000
H     0.910000000     1.845000000    -1.507000000
C     0.740000000     1.234000000     0.553000000
C     1.332000000     2.538000000     1.073000000
O     2.003000000     2.613000000     2.083000000
O     1.042000000     3.629000000     0.518000000
O     0.380000000    -1.192000000    -6.387000000
H     0.148000000    -2.110000000    -6.526000000
H     0.938000000    -0.970000000    -7.133000000
O     3.468000000    -0.526000000     3.859000000
H     3.817000000    -1.283000000     3.389000000
H     2.522000000    -0.672000000     3.880000000
O    -4.327000000    -3.248000000    -6.225000000
H    -3.723000000    -3.302000000    -5.485000000
H    -5.036000000    -3.850000000    -6.000000000
O     0.013000000     4.808000000    -1.906000000
H     0.548000000     4.507000000    -1.172000000
H    -0.536000000     4.055000000    -2.127000000
O    -3.156000000    -7.817000000    -1.220000000
H    -2.262000000    -7.555000000    -0.998000000
H    -3.594000000    -7.915000000    -0.375000000
O    -5.288000000    -1.854000000     3.461000000
H    -4.802000000    -1.087000000     3.159000000
H    -4.619000000    -2.432000000     3.828000000
O     0.524000000     5.902000000     3.363000000
H     0.285000000     4.975000000     3.388000000
H     1.461000000     5.902000000     3.166000000
O     0.437000000     0.561000000     5.573000000
H     0.406000000     0.775000000     6.506000000
H     0.418000000     1.411000000     5.133000000
O     6.516000000     3.236000000     3.517000000
H     5.889000000     2.978000000     2.841000000
H     6.277000000     2.709000000     4.279000000
O     4.778000000     0.408000000    -0.855000000
H     3.961000000    -0.086000000    -0.789000000
H     5.023000000     0.589000000     0.052000000
O     2.594000000    -1.572000000    -0.184000000
H     1.690000000    -1.388000000     0.068000000
H     2.850000000    -2.314000000     0.366000000
O    -4.486000000    -0.312000000    -5.532000000
H    -3.640000000     0.047000000    -5.799000000
H    -4.359000000    -1.261000000    -5.548000000
O    -0.199000000     6.931000000    -3.353000000
H    -0.183000000     6.293000000    -2.640000000
H     0.150000000     6.456000000    -4.107000000
O    -1.368000000     4.092000000     1.419000000
H    -1.784000000     4.581000000     0.709000000
H    -0.433000000     4.129000000     1.220000000
O     1.004000000     2.838000000     4.361000000
H     1.533000000     3.522000000     4.771000000
H     1.492000000     2.597000000     3.574000000
O     4.413000000     1.823000000     5.316000000
H     4.187000000     1.805000000     6.246000000
H     3.962000000     1.065000000     4.944000000
O     0.230000000     7.564000000     1.038000000
H     0.225000000     7.142000000     1.897000000
H     1.075000000     8.012000000     0.996000000
O    -2.330000000    -4.599000000    -1.366000000
H    -1.897000000    -4.304000000    -0.565000000
H    -3.109000000    -5.064000000    -1.059000000
O    -0.510000000     0.792000000    -4.735000000
H    -0.140000000     0.269000000    -5.446000000
H     0.224000000     0.942000000    -4.140000000
O    -2.854000000    -2.788000000     2.413000000
H    -2.176000000    -2.399000000     2.965000000
H    -2.391000000    -3.441000000     1.889000000
O    -2.648000000    -3.178000000    -3.744000000
H    -2.562000000    -3.662000000    -2.923000000
H    -1.995000000    -2.482000000    -3.682000000
O     3.762000000     7.507000000     0.327000000
H     3.703000000     7.031000000    -0.502000000
H     3.974000000     8.405000000     0.073000000
O     1.190000000    -3.694000000     2.061000000
H     1.214000000    -2.997000000     2.717000000
H     1.936000000    -4.253000000     2.278000000
O    -2.348000000    -0.237000000     5.461000000
H    -2.538000000    -0.021000000     4.549000000
H    -1.482000000     0.139000000     5.621000000
O     3.538000000    -2.370000000    -2.701000000
H     3.177000000    -2.080000000    -1.864000000
H     4.483000000    -2.417000000    -2.551000000
O     3.427000000     1.884000000    -4.541000000
H     3.355000000     2.111000000    -5.468000000
H     3.075000000     0.996000000    -4.483000000
O    -2.474000000     6.027000000    -0.533000000
H    -1.635000000     6.214000000    -0.955000000
H    -2.983000000     5.573000000    -1.204000000
O     3.272000000     4.591000000     4.889000000
H     4.001000000     3.972000000     4.934000000
H     3.483000000     5.156000000     4.146000000
O    -2.626000000     1.978000000     0.575000000
H    -2.177000000     2.809000000     0.733000000
H    -2.068000000     1.521000000    -0.054000000
O    -0.409000000    -5.585000000    -3.465000000
H    -1.228000000    -5.306000000    -3.056000000
H    -0.318000000    -6.505000000    -3.216000000
O     1.078000000    -1.946000000     4.114000000
H     1.549000000    -2.466000000     4.765000000
H     0.693000000    -1.227000000     4.615000000
O     0.100000000    -3.885000000    -6.548000000
H    -0.787000000    -3.801000000    -6.897000000
H     0.001000000    -4.438000000    -5.773000000
O     4.526000000     1.723000000     1.960000000
H     3.700000000     2.097000000     2.264000000
H     4.636000000     0.929000000     2.483000000
O    -4.797000000    -2.272000000     0.364000000
H    -4.128000000    -2.359000000     1.043000000
H    -5.004000000    -3.173000000     0.114000000
O     5.581000000     3.683000000     0.216000000
H     4.794000000     4.189000000     0.012000000
H     5.265000000     2.954000000     0.749000000
O    -1.237000000    -4.814000000     1.395000000
H    -0.400000000    -4.357000000     1.480000000
H    -1.224000000    -5.470000000     2.092000000
O     2.474000000    -0.637000000    -4.731000000
H     2.064000000    -1.204000000    -5.385000000
H     2.935000000    -1.240000000    -4.148000000
O     2.723000000     4.513000000    -3.281000000
H     2.300000000     4.949000000    -4.021000000
H     3.057000000     3.694000000    -3.646000000
O     2.171000000    -4.754000000    -3.568000000
H     1.255000000    -4.665000000    -3.304000000
H     2.637000000    -4.110000000    -3.034000000
O    -6.755000000    -0.128000000     0.206000000
H    -6.786000000    -0.331000000    -0.729000000
H    -6.202000000    -0.815000000     0.581000000
O    -1.805000000     2.792000000     3.867000000
H    -0.854000000     2.889000000     3.916000000
H    -2.064000000     3.337000000     3.124000000
O    -1.666000000     1.200000000    -7.307000000
H    -1.228000000     1.246000000    -6.457000000
H    -0.974000000     0.953000000    -7.921000000
O     3.044000000     5.334000000     2.078000000
H     2.537000000     4.558000000     1.840000000
H     3.417000000     5.640000000     1.252000000
O    -2.943000000     0.407000000     2.867000000
H    -2.556000000     1.209000000     3.219000000
H    -3.315000000     0.670000000     2.025000000
O    -5.599000000    -4.790000000    -0.202000000
H    -6.534000000    -4.926000000    -0.048000000
H    -5.176000000    -5.537000000     0.222000000
O    -1.915000000     2.624000000    -2.753000000
H    -1.525000000     2.087000000    -3.443000000
H    -2.716000000     2.158000000    -2.512000000
O     3.218000000     4.614000000    -0.784000000
H     2.393000000     4.402000000    -0.347000000
H     2.993000000     4.655000000    -1.713000000
O     5.671000000     2.416000000    -2.626000000
H     5.527000000     1.584000000    -2.176000000
H     4.831000000     2.615000000    -3.038000000
