158
-3046.63021
C     0.862000000     0.409000000     1.165000000
H     1.510000000     0.600000000     2.016000000
C     0.430000000    -0.907000000     0.803000000
H     0.901000000    -1.753000000     1.298000000
C    -0.336000000    -1.139000000    -0.256000000
H    -0.466000000    -2.194000000    -0.631000000
C    -0.768000000    -0.072000000    -1.059000000
H    -1.281000000    -0.265000000    -1.998000000
C    -0.492000000     1.187000000    -0.612000000
H    -0.962000000     2.032000000    -1.108000000
C     0.369000000     1.479000000     0.467000000
C     0.719000000     2.865000000     0.699000000
O     1.324000000     3.085000000     1.710000000
O     0.539000000     3.673000000    -0.188000000
O     2.534000000    -1.399000000     3.099000000
H     3.331000000    -0.870000000     3.074000000
H     2.625000000    -2.005000000     2.363000000
O    -1.250000000     5.604000000    -0.792000000
H    -0.462000000     5.155000000    -0.484000000
H    -1.769000000     4.917000000    -1.211000000
O    -5.229000000    -5.807000000    -1.975000000
H    -4.607000000    -5.599000000    -2.673000000
H    -4.707000000    -5.782000000    -1.173000000
O     5.098000000    -0.436000000     2.801000000
H     5.320000000     0.115000000     3.551000000
H     5.940000000    -0.772000000     2.493000000
O    -0.689000000     7.347000000     4.275000000
H    -0.285000000     6.744000000     3.651000000
H    -0.908000000     6.800000000     5.029000000
O     1.337000000    -0.356000000     5.233000000
H     1.829000000    -0.546000000     4.435000000
H     1.086000000     0.564000000     5.147000000
O     2.640000000    -2.762000000    -0.835000000
H     2.965000000    -1.961000000    -0.425000000
H     2.673000000    -3.418000000    -0.138000000
O     2.825000000    -3.752000000     1.661000000
H     3.574000000    -4.016000000     2.195000000
H     2.076000000    -4.189000000     2.067000000
O     1.483000000    -6.325000000    -0.192000000
H     2.262000000    -5.815000000     0.028000000
H     1.243000000    -6.761000000     0.626000000
O    -3.216000000    -0.330000000    -5.156000000
H    -2.702000000    -0.957000000    -5.666000000
H    -2.647000000     0.436000000    -5.076000000
O    -3.455000000    -4.836000000    -4.045000000
H    -3.546000000    -4.029000000    -3.538000000
H    -4.074000000    -4.736000000    -4.768000000
O    -0.968000000     7.690000000    -2.592000000
H    -1.102000000     6.993000000    -1.951000000
H    -1.212000000     7.296000000    -3.430000000
O    -3.310000000    -2.197000000    -2.785000000
H    -3.499000000    -2.312000000    -1.853000000
H    -3.623000000    -1.315000000    -2.985000000
O    -2.999000000     4.036000000     1.307000000
H    -2.453000000     4.403000000     0.612000000
H    -3.546000000     3.388000000     0.864000000
O    -0.110000000     2.035000000     3.685000000
H    -0.175000000     2.676000000     4.393000000
H     0.372000000     2.489000000     2.994000000
O     5.033000000     0.721000000     5.392000000
H     4.084000000     0.838000000     5.346000000
H     5.207000000     0.532000000     6.314000000
O    -0.740000000    -2.930000000    -3.305000000
H    -0.584000000    -3.409000000    -2.492000000
H    -1.649000000    -2.639000000    -3.241000000
O    -5.962000000    -0.483000000    -2.734000000
H    -6.801000000    -0.059000000    -2.554000000
H    -5.648000000    -0.766000000    -1.875000000
O    -1.640000000     1.884000000    -4.219000000
H    -1.342000000     2.147000000    -5.090000000
H    -0.837000000     1.806000000    -3.704000000
O    -3.706000000    -3.761000000     2.570000000
H    -4.281000000    -4.161000000     3.222000000
H    -3.478000000    -2.909000000     2.942000000
O    -1.214000000    -1.927000000    -6.164000000
H    -0.975000000    -2.129000000    -5.260000000
H    -0.763000000    -2.592000000    -6.685000000
O     0.951000000    -5.812000000     2.969000000
H     0.724000000    -5.064000000     3.522000000
H     0.173000000    -6.369000000     2.988000000
O     2.035000000    -2.281000000    -3.411000000
H     1.138000000    -2.569000000    -3.577000000
H     2.141000000    -2.362000000    -2.463000000
O     0.955000000     1.934000000    -3.184000000
H     1.438000000     1.287000000    -3.698000000
H     1.487000000     2.062000000    -2.399000000
O    -3.523000000     7.111000000    -0.355000000
H    -3.394000000     8.059000000    -0.355000000
H    -2.659000000     6.751000000    -0.155000000
O    -2.278000000    -0.173000000     1.740000000
H    -1.762000000    -0.373000000     0.959000000
H    -1.629000000     0.080000000     2.397000000
O     1.018000000    -6.831000000    -2.915000000
H     0.766000000    -6.251000000    -2.196000000
H     1.390000000    -7.600000000    -2.483000000
O     1.005000000    -3.565000000     4.423000000
H     1.140000000    -3.760000000     5.350000000
H     1.196000000    -2.631000000     4.343000000
O     3.193000000     2.612000000     3.589000000
H     2.469000000     2.761000000     2.980000000
H     2.778000000     2.586000000     4.452000000
O    -5.069000000    -1.194000000    -0.090000000
H    -4.218000000    -1.630000000    -0.041000000
H    -5.684000000    -1.825000000     0.285000000
O    -2.846000000    -2.965000000     0.000000000
H    -1.914000000    -3.181000000    -0.007000000
H    -3.198000000    -3.449000000     0.748000000
O     4.126000000     2.708000000     0.849000000
H     3.758000000     3.567000000     0.643000000
H     3.618000000     2.403000000     1.601000000
O    -1.004000000    -4.992000000    -0.940000000
H    -0.327000000    -5.364000000    -0.374000000
H    -1.786000000    -5.512000000    -0.752000000
O    -0.008000000     4.481000000    -3.696000000
H    -0.532000000     4.369000000    -2.903000000
H     0.439000000     3.642000000    -3.809000000
O     3.071000000    -5.415000000    -3.850000000
H     2.352000000    -6.044000000    -3.787000000
H     2.774000000    -4.659000000    -3.343000000
O     6.495000000     3.025000000     2.674000000
H     6.413000000     3.182000000     3.615000000
H     5.592000000     2.974000000     2.361000000
O    -2.965000000     2.595000000     4.016000000
H    -2.370000000     1.888000000     4.264000000
H    -2.705000000     2.826000000     3.124000000
O     3.505000000     1.375000000    -1.876000000
H     3.802000000     1.076000000    -1.016000000
H     3.354000000     2.313000000    -1.764000000
O     3.898000000     6.133000000     1.461000000
H     3.852000000     6.435000000     2.368000000
H     3.323000000     6.728000000     0.980000000
O    -3.129000000    -6.663000000    -0.054000000
H    -3.061000000    -7.614000000    -0.134000000
H    -3.272000000    -6.510000000     0.880000000
O     2.243000000     2.219000000     6.324000000
H     1.993000000     2.021000000     7.227000000
H     1.772000000     3.025000000     6.116000000
O     0.870000000     5.825000000     2.055000000
H     1.146000000     4.965000000     1.737000000
H     1.047000000     6.418000000     1.325000000
O    -4.322000000     1.815000000     0.007000000
H    -4.135000000     0.881000000     0.096000000
H    -4.268000000     1.982000000    -0.934000000
O     4.174000000    -2.894000000     4.850000000
H     3.475000000    -2.304000000     4.570000000
H     4.913000000    -2.316000000     5.039000000
O    -2.746000000     3.901000000    -2.214000000
H    -2.804000000     3.072000000    -2.689000000
H    -3.438000000     4.443000000    -2.592000000
O     2.688000000     3.877000000    -1.825000000
H     1.970000000     3.912000000    -1.192000000
H     2.472000000     4.550000000    -2.470000000
O     4.418000000    -0.552000000     0.074000000
H     5.251000000    -0.951000000    -0.176000000
H     4.524000000    -0.335000000     1.000000000
O    -4.448000000     1.828000000    -3.035000000
H    -4.834000000     0.973000000    -3.223000000
H    -3.615000000     1.824000000    -3.507000000
