158
-3034.56899
C    -0.418000000     1.411000000     0.165000000
H    -0.620000000     2.451000000     0.407000000
C     0.028000000     0.581000000     1.160000000
H     0.296000000     0.997000000     2.128000000
C     0.483000000    -0.727000000     0.848000000
H     1.107000000    -1.318000000     1.627000000
C     0.361000000    -1.242000000    -0.477000000
H     0.686000000    -2.267000000    -0.637000000
C    -0.296000000    -0.416000000    -1.434000000
H    -0.581000000    -0.914000000    -2.357000000
C    -0.635000000     0.885000000    -1.093000000
C    -1.235000000     1.840000000    -2.118000000
O    -1.343000000     1.491000000    -3.321000000
O    -1.660000000     2.931000000    -1.775000000
O     2.699000000     1.112000000     4.254000000
H     3.077000000     1.901000000     3.866000000
H     1.976000000     1.433000000     4.792000000
O     4.888000000    -3.000000000     2.462000000
H     4.440000000    -2.702000000     1.670000000
H     4.427000000    -2.561000000     3.177000000
O     3.915000000     3.243000000     2.631000000
H     3.339000000     3.130000000     1.875000000
H     3.834000000     4.170000000     2.857000000
O    -5.005000000     4.215000000    -2.379000000
H    -5.775000000     4.757000000    -2.547000000
H    -5.022000000     4.061000000    -1.434000000
O     1.308000000    -6.269000000     1.352000000
H     1.058000000    -5.858000000     2.179000000
H     1.850000000    -5.614000000     0.912000000
O     6.477000000    -0.551000000     3.549000000
H     7.077000000    -0.738000000     2.827000000
H     5.641000000    -0.363000000     3.123000000
O     1.207000000    -1.373000000    -4.942000000
H     0.283000000    -1.558000000    -5.108000000
H     1.679000000    -1.945000000    -5.547000000
O     1.393000000     1.010000000    -3.675000000
H     1.326000000     0.121000000    -4.023000000
H     0.491000000     1.255000000    -3.469000000
O    -4.115000000     1.559000000    -3.852000000
H    -4.398000000     1.154000000    -3.032000000
H    -3.213000000     1.834000000    -3.684000000
O     0.071000000    -5.418000000    -3.382000000
H    -0.852000000    -5.300000000    -3.156000000
H     0.068000000    -5.571000000    -4.327000000
O    -4.312000000     0.148000000    -1.334000000
H    -5.024000000     0.310000000    -0.715000000
H    -3.534000000     0.053000000    -0.784000000
O    -2.712000000     5.016000000     2.887000000
H    -3.173000000     4.489000000     3.541000000
H    -2.269000000     5.695000000     3.396000000
O     2.952000000    -6.868000000     3.721000000
H     2.842000000    -6.366000000     2.914000000
H     2.061000000    -7.096000000     3.985000000
O    -2.026000000     1.708000000    -8.294000000
H    -1.561000000     1.637000000    -7.461000000
H    -2.736000000     2.326000000    -8.120000000
O    -4.120000000     6.976000000    -2.841000000
H    -4.768000000     7.427000000    -3.382000000
H    -4.077000000     6.092000000    -3.206000000
O     1.967000000     5.969000000    -0.636000000
H     1.964000000     6.926000000    -0.643000000
H     1.065000000     5.725000000    -0.844000000
O     3.669000000     1.468000000    -0.625000000
H     3.297000000     1.162000000    -1.452000000
H     3.041000000     2.115000000    -0.305000000
O    -2.459000000     1.192000000     3.315000000
H    -3.048000000     1.827000000     3.723000000
H    -2.117000000     0.678000000     4.047000000
O    -2.241000000     6.293000000    -5.788000000
H    -3.097000000     6.715000000    -5.709000000
H    -2.206000000     5.684000000    -5.050000000
O     0.777000000     6.585000000     2.271000000
H     0.342000000     6.412000000     1.436000000
H     0.061000000     6.680000000     2.899000000
O     5.035000000    -2.574000000    -2.480000000
H     4.396000000    -2.163000000    -1.898000000
H     5.169000000    -3.447000000    -2.111000000
O    -3.665000000    -2.045000000    -3.152000000
H    -4.536000000    -2.070000000    -3.548000000
H    -3.775000000    -1.513000000    -2.364000000
O    -1.857000000    -0.776000000    -4.690000000
H    -1.478000000    -0.070000000    -4.166000000
H    -2.485000000    -1.199000000    -4.104000000
O    -2.452000000     4.410000000    -3.749000000
H    -1.962000000     3.865000000    -3.133000000
H    -3.363000000     4.336000000    -3.463000000
O     2.576000000    -6.259000000    -1.883000000
H     2.946000000    -7.133000000    -2.009000000
H     1.734000000    -6.287000000    -2.338000000
O     3.522000000     2.567000000    -4.398000000
H     2.868000000     1.902000000    -4.184000000
H     3.538000000     3.143000000    -3.633000000
O     4.149000000    -0.032000000     2.171000000
H     3.381000000     0.325000000     2.619000000
H     4.331000000     0.594000000     1.471000000
O     5.012000000    -5.877000000     1.655000000
H     4.239000000    -5.355000000     1.440000000
H     5.670000000    -5.233000000     1.918000000
O    -2.312000000    -3.892000000     3.594000000
H    -2.343000000    -4.514000000     4.321000000
H    -1.491000000    -3.416000000     3.722000000
O     0.434000000    -2.189000000     4.275000000
H    -0.090000000    -1.477000000     4.641000000
H     1.341000000    -1.925000000     4.430000000
O     3.343000000    -1.569000000     4.753000000
H     3.326000000    -0.616000000     4.845000000
H     4.133000000    -1.840000000     5.222000000
O    -2.514000000    -4.929000000    -2.885000000
H    -3.388000000    -5.316000000    -2.845000000
H    -2.672000000    -3.991000000    -2.999000000
O     1.089000000     3.775000000    -5.948000000
H     0.395000000     3.152000000    -5.734000000
H     1.898000000     3.328000000    -5.701000000
O    -3.419000000    -0.357000000    -6.998000000
H    -2.685000000    -0.533000000    -6.410000000
H    -3.043000000     0.177000000    -7.698000000
O     0.457000000     3.384000000     3.469000000
H     0.368000000     2.971000000     4.328000000
H    -0.234000000     2.985000000     2.939000000
O    -1.100000000    -0.193000000     5.721000000
H    -0.584000000    -0.302000000     6.520000000
H    -1.998000000    -0.073000000     6.030000000
O    -0.680000000     5.526000000    -1.161000000
H    -1.270000000     6.273000000    -1.065000000
H    -1.156000000     4.915000000    -1.722000000
O     2.252000000     5.568000000     4.478000000
H     1.943000000     4.697000000     4.227000000
H     1.858000000     6.156000000     3.835000000
O     0.637000000     2.369000000     5.923000000
H     0.728000000     2.655000000     6.832000000
H     0.162000000     1.540000000     5.979000000
O    -3.483000000     3.811000000     0.080000000
H    -2.832000000     3.531000000    -0.563000000
H    -2.989000000     4.339000000     0.707000000
O     3.067000000    -4.331000000     0.348000000
H     3.031000000    -4.988000000    -0.347000000
H     3.189000000    -3.501000000    -0.112000000
O     3.879000000    -1.834000000    -0.048000000
H     4.424000000    -1.224000000     0.450000000
H     3.121000000    -1.314000000    -0.317000000
O    -2.960000000    -0.603000000     1.388000000
H    -3.083000000     0.035000000     2.091000000
H    -2.012000000    -0.641000000     1.262000000
O    -2.337000000     7.403000000    -0.842000000
H    -2.784000000     7.462000000     0.002000000
H    -3.045000000     7.351000000    -1.484000000
O     0.891000000    -4.720000000     3.540000000
H     0.867000000    -3.764000000     3.507000000
H     0.976000000    -4.926000000     4.471000000
O    -5.909000000     2.413000000    -6.258000000
H    -6.395000000     3.155000000    -5.899000000
H    -5.309000000     2.158000000    -5.557000000
O    -1.226000000     2.316000000    -5.732000000
H    -1.650000000     3.170000000    -5.646000000
H    -1.297000000     1.924000000    -4.861000000
O     2.249000000     3.298000000     0.512000000
H     1.411000000     3.294000000     0.974000000
H     2.305000000     4.171000000     0.125000000
