158
-3019.32009
C     1.451000000    -0.455000000     0.257000000
H     2.468000000    -0.816000000     0.389000000
C     0.296000000    -1.291000000     0.345000000
H     0.352000000    -2.354000000     0.568000000
C    -0.949000000    -0.769000000     0.072000000
H    -1.874000000    -1.297000000     0.068000000
C    -1.113000000     0.551000000    -0.255000000
H    -2.113000000     0.966000000    -0.351000000
C     0.008000000     1.396000000    -0.355000000
H    -0.239000000     2.427000000    -0.598000000
C     1.292000000     0.893000000    -0.083000000
C     2.494000000     1.850000000    -0.238000000
O     3.568000000     1.578000000     0.227000000
O     2.328000000     2.836000000    -0.894000000
O     4.469000000     4.808000000    -3.333000000
H     4.064000000     3.970000000    -3.555000000
H     4.270000000     5.375000000    -4.078000000
O    -3.062000000    -2.674000000    -4.995000000
H    -2.461000000    -2.568000000    -4.258000000
H    -3.064000000    -3.615000000    -5.169000000
O     2.728000000    -4.794000000    -0.489000000
H     3.427000000    -4.713000000    -1.138000000
H     2.783000000    -5.702000000    -0.190000000
O    -1.860000000     6.387000000    -1.845000000
H    -1.302000000     6.350000000    -1.068000000
H    -2.384000000     5.588000000    -1.802000000
O    -3.414000000     3.946000000    -1.569000000
H    -3.443000000     3.164000000    -2.120000000
H    -3.262000000     3.611000000    -0.685000000
O    -0.647000000     4.702000000     0.722000000
H     0.020000000     4.598000000     1.400000000
H    -0.179000000     4.551000000    -0.100000000
O    -0.300000000    -4.744000000     2.430000000
H    -0.832000000    -3.951000000     2.366000000
H    -0.663000000    -5.215000000     3.180000000
O     0.204000000     4.284000000     4.637000000
H     0.507000000     4.089000000     3.750000000
H     0.236000000     5.239000000     4.696000000
O     7.459000000     2.205000000    -1.292000000
H     6.870000000     2.166000000    -0.539000000
H     7.882000000     1.346000000    -1.310000000
O     5.580000000     0.758000000    -3.205000000
H     4.714000000     1.146000000    -3.077000000
H     5.738000000     0.255000000    -2.406000000
O     2.624000000    -2.694000000    -2.760000000
H     1.986000000    -1.982000000    -2.718000000
H     2.286000000    -3.278000000    -3.440000000
O     1.515000000     7.838000000     0.457000000
H     1.294000000     8.706000000     0.121000000
H     1.662000000     7.308000000    -0.327000000
O     1.464000000     3.898000000     2.231000000
H     2.024000000     3.268000000     2.685000000
H     2.036000000     4.300000000     1.578000000
O     3.220000000     4.913000000     0.434000000
H     3.097000000     4.032000000     0.079000000
H     3.276000000     5.476000000    -0.338000000
O     0.888000000     4.534000000    -2.110000000
H     1.454000000     3.904000000    -1.664000000
H     0.950000000     4.298000000    -3.036000000
O    -6.880000000    -1.364000000     1.382000000
H    -6.214000000    -1.658000000     2.004000000
H    -6.842000000    -2.004000000     0.671000000
O     6.697000000    -4.235000000     0.648000000
H     7.456000000    -4.052000000     1.202000000
H     6.074000000    -3.539000000     0.857000000
O     3.276000000     1.994000000    -3.445000000
H     2.753000000     1.429000000    -4.013000000
H     2.662000000     2.294000000    -2.775000000
O     3.174000000    -2.550000000     4.785000000
H     2.302000000    -2.794000000     5.097000000
H     3.077000000    -2.477000000     3.836000000
O     3.187000000     6.561000000    -1.976000000
H     2.305000000     6.215000000    -2.115000000
H     3.760000000     5.944000000    -2.432000000
O    -4.248000000     1.231000000     2.966000000
H    -4.647000000     0.499000000     2.496000000
H    -4.945000000     1.559000000     3.534000000
O    -2.864000000     2.914000000     1.121000000
H    -3.044000000     2.303000000     1.835000000
H    -1.954000000     3.178000000     1.254000000
O     5.382000000    -0.307000000    -0.736000000
H     5.003000000    -0.992000000    -0.185000000
H     4.815000000     0.452000000    -0.599000000
O    -3.442000000    -5.076000000    -0.010000000
H    -3.540000000    -6.021000000     0.106000000
H    -3.227000000    -4.749000000     0.863000000
O    -0.092000000    -4.048000000    -3.164000000
H     0.372000000    -3.762000000    -2.378000000
H    -0.273000000    -4.976000000    -3.012000000
O    -2.144000000     5.809000000     2.712000000
H    -1.838000000     5.348000000     1.931000000
H    -1.741000000     6.675000000     2.653000000
O    -1.346000000     0.800000000     3.786000000
H    -1.142000000     1.376000000     4.522000000
H    -2.259000000     0.993000000     3.576000000
O    -5.658000000    -3.517000000    -0.836000000
H    -6.216000000    -4.195000000    -0.456000000
H    -4.853000000    -3.976000000    -1.078000000
O    -0.302000000     1.744000000    -3.889000000
H    -1.096000000     2.226000000    -3.657000000
H     0.125000000     2.289000000    -4.550000000
O    -2.789000000    -2.903000000    -2.124000000
H    -3.218000000    -3.440000000    -2.790000000
H    -2.700000000    -3.484000000    -1.368000000
O    -5.104000000    -0.920000000     5.169000000
H    -6.002000000    -0.647000000     5.357000000
H    -4.663000000    -0.117000000     4.892000000
O    -3.037000000     0.864000000    -3.019000000
H    -3.628000000     0.211000000    -2.645000000
H    -2.221000000     0.757000000    -2.530000000
O    -0.526000000    -6.541000000    -1.831000000
H    -0.504000000    -5.943000000    -1.085000000
H    -0.016000000    -7.299000000    -1.546000000
O     6.012000000     2.555000000     1.363000000
H     6.376000000     1.719000000     1.655000000
H     5.082000000     2.376000000     1.223000000
O    -4.787000000    -0.681000000    -1.644000000
H    -5.600000000    -1.187000000    -1.655000000
H    -4.118000000    -1.309000000    -1.373000000
O    -5.160000000    -2.590000000     3.191000000
H    -5.540000000    -3.434000000     3.434000000
H    -5.112000000    -2.102000000     4.013000000
O     1.309000000     3.393000000    -5.297000000
H     0.862000000     4.023000000    -5.861000000
H     2.114000000     3.178000000    -5.769000000
O     3.313000000     2.050000000     4.276000000
H     3.820000000     2.822000000     4.026000000
H     3.813000000     1.312000000     3.927000000
O     0.868000000    -0.582000000    -2.939000000
H     0.362000000     0.171000000    -3.243000000
H     0.655000000    -0.655000000    -2.008000000
O     1.237000000    -0.080000000     3.633000000
H     0.581000000    -0.712000000     3.342000000
H     0.734000000     0.704000000     3.853000000
O     4.665000000     4.140000000     3.470000000
H     4.899000000     4.712000000     4.201000000
H     5.311000000     4.339000000     2.793000000
O     3.987000000    -0.078000000     2.627000000
H     3.858000000     0.271000000     1.745000000
H     3.138000000     0.034000000     3.055000000
O     2.343000000    -3.432000000     1.922000000
H     2.373000000    -3.695000000     1.002000000
H     1.435000000    -3.583000000     2.185000000
O     5.348000000    -2.552000000    -3.379000000
H     4.467000000    -2.925000000    -3.397000000
H     5.252000000    -1.733000000    -2.894000000
O     4.639000000    -2.206000000     1.029000000
H     4.714000000    -1.446000000     1.606000000
H     4.020000000    -2.785000000     1.474000000
O     0.428000000    -7.217000000     0.921000000
H     0.050000000    -6.433000000     1.320000000
H    -0.214000000    -7.906000000     1.094000000
O     6.459000000     5.286000000     1.663000000
H     6.258000000     4.396000000     1.373000000
H     6.838000000     5.709000000     0.893000000
O    -2.699000000    -2.737000000     2.139000000
H    -3.589000000    -2.444000000     2.334000000
H    -2.241000000    -1.942000000     1.865000000
