158
-3007.10052
C     1.468000000    -0.415000000     0.000000000
H     2.468000000    -0.824000000    -0.113000000
C     0.367000000    -1.269000000     0.146000000
H     0.592000000    -2.333000000     0.143000000
C    -0.926000000    -0.765000000     0.169000000
H    -1.763000000    -1.448000000     0.038000000
C    -1.178000000     0.592000000     0.210000000
H    -2.131000000     1.112000000     0.256000000
C    -0.097000000     1.504000000     0.028000000
H    -0.359000000     2.559000000     0.026000000
C     1.194000000     0.981000000    -0.019000000
C     2.331000000     1.934000000    -0.140000000
O     3.391000000     1.417000000    -0.485000000
O     2.084000000     3.131000000    -0.088000000
O    -4.439000000    -6.143000000    -2.702000000
H    -3.728000000    -5.758000000    -2.190000000
H    -4.504000000    -7.043000000    -2.384000000
O    -5.298000000     2.268000000     4.353000000
H    -4.619000000     2.281000000     3.679000000
H    -5.089000000     3.012000000     4.918000000
O     2.692000000     7.339000000    -1.682000000
H     3.205000000     8.108000000    -1.932000000
H     1.969000000     7.321000000    -2.309000000
O    -2.930000000    -0.907000000    -2.495000000
H    -2.528000000    -1.750000000    -2.708000000
H    -2.197000000    -0.293000000    -2.467000000
O     0.603000000    -5.713000000     1.492000000
H     0.473000000    -5.912000000     2.419000000
H     0.232000000    -6.464000000     1.031000000
O    -4.321000000    -7.112000000     1.636000000
H    -4.514000000    -7.975000000     1.270000000
H    -3.896000000    -6.638000000     0.921000000
O     6.390000000     2.125000000     3.830000000
H     6.039000000     3.015000000     3.798000000
H     6.109000000     1.728000000     3.005000000
O    -2.091000000    -1.208000000     5.226000000
H    -1.368000000    -0.644000000     4.951000000
H    -2.287000000    -1.740000000     4.455000000
O    -0.770000000     4.842000000     2.572000000
H    -0.083000000     4.945000000     3.231000000
H    -0.359000000     5.117000000     1.752000000
O    -0.423000000    -6.204000000     3.805000000
H    -1.335000000    -5.980000000     3.991000000
H    -0.188000000    -6.836000000     4.486000000
O    -3.509000000    -4.072000000    -5.652000000
H    -3.187000000    -3.819000000    -4.787000000
H    -3.008000000    -4.857000000    -5.874000000
O    -3.559000000     3.757000000     2.767000000
H    -2.692000000     3.926000000     3.134000000
H    -3.768000000     4.550000000     2.272000000
O     8.007000000     2.909000000    -0.079000000
H     8.683000000     2.292000000    -0.360000000
H     7.242000000     2.684000000    -0.610000000
O     5.991000000     2.420000000    -1.935000000
H     5.181000000     2.892000000    -2.129000000
H     5.716000000     1.511000000    -1.817000000
O     3.907000000    -3.182000000    -4.413000000
H     3.358000000    -2.705000000    -3.792000000
H     3.403000000    -3.967000000    -4.626000000
O     1.801000000     7.391000000     2.620000000
H     1.587000000     6.790000000     1.906000000
H     1.948000000     6.822000000     3.376000000
O     4.468000000     4.119000000     0.581000000
H     4.888000000     3.275000000     0.747000000
H     3.588000000     3.894000000     0.278000000
O     1.069000000     5.511000000     0.400000000
H     1.349000000     4.608000000     0.248000000
H     0.860000000     5.847000000    -0.472000000
O     7.753000000     3.472000000    -3.370000000
H     8.034000000     2.714000000    -3.883000000
H     7.038000000     3.141000000    -2.825000000
O    -6.672000000    -3.046000000     3.079000000
H    -6.937000000    -3.816000000     2.576000000
H    -6.889000000    -2.305000000     2.514000000
O     5.189000000    -1.588000000     0.848000000
H     5.717000000    -2.362000000     1.041000000
H     4.638000000    -1.474000000     1.623000000
O     3.364000000     3.855000000    -2.928000000
H     2.643000000     3.644000000    -3.520000000
H     2.954000000     3.924000000    -2.066000000
O    -4.492000000     2.834000000     0.308000000
H    -4.077000000     2.854000000     1.170000000
H    -4.801000000     1.933000000     0.211000000
O     2.728000000     0.612000000    -3.919000000
H     3.513000000     0.887000000    -3.446000000
H     2.170000000     1.389000000    -3.930000000
O    -5.396000000     5.274000000    -0.606000000
H    -4.891000000     4.518000000    -0.308000000
H    -6.290000000     5.094000000    -0.314000000
O     4.955000000    -0.062000000    -1.807000000
H     5.060000000    -0.833000000    -1.250000000
H     4.209000000     0.405000000    -1.431000000
O    -6.379000000     0.268000000    -2.303000000
H    -6.389000000    -0.581000000    -2.745000000
H    -5.764000000     0.154000000    -1.578000000
O    -1.718000000    -4.193000000     1.231000000
H    -0.878000000    -4.584000000     1.468000000
H    -2.066000000    -3.852000000     2.055000000
O    -1.485000000    -3.260000000    -2.703000000
H    -0.577000000    -3.320000000    -2.408000000
H    -1.905000000    -4.043000000    -2.345000000
O    -0.051000000     0.544000000    -2.881000000
H    -0.158000000     0.573000000    -1.931000000
H    -0.296000000     1.421000000    -3.177000000
O     0.400000000    -6.174000000    -2.730000000
H     1.015000000    -6.696000000    -2.214000000
H    -0.327000000    -6.769000000    -2.911000000
O    -4.124000000    -2.881000000     0.505000000
H    -3.422000000    -3.488000000     0.737000000
H    -4.538000000    -2.662000000     1.340000000
O    -2.504000000    -5.444000000    -1.009000000
H    -2.430000000    -4.834000000    -0.275000000
H    -2.044000000    -6.230000000    -0.714000000
O     5.118000000     1.202000000     1.547000000
H     5.550000000     0.363000000     1.383000000
H     4.473000000     1.281000000     0.845000000
O    -4.508000000    -0.208000000    -0.417000000
H    -3.966000000    -0.137000000    -1.202000000
H    -4.500000000    -1.141000000    -0.203000000
O     1.111000000     3.044000000    -4.313000000
H     0.593000000     3.839000000    -4.191000000
H     0.920000000     2.768000000    -5.210000000
O     2.149000000    -1.734000000    -2.830000000
H     1.632000000    -1.468000000    -2.069000000
H     2.248000000    -0.932000000    -3.343000000
O     1.028000000    -1.353000000     3.001000000
H     0.695000000    -1.166000000     2.123000000
H     0.818000000    -0.569000000     3.509000000
O     4.741000000     4.358000000     3.248000000
H     5.159000000     5.143000000     3.604000000
H     4.723000000     4.505000000     2.302000000
O     2.247000000     2.814000000     3.445000000
H     2.442000000     3.604000000     2.941000000
H     3.072000000     2.329000000     3.459000000
O     1.410000000    -2.428000000     5.414000000
H     1.406000000    -2.333000000     4.462000000
H     1.595000000    -3.356000000     5.562000000
O     3.394000000    -5.349000000     1.318000000
H     2.446000000    -5.467000000     1.379000000
H     3.560000000    -4.512000000     1.750000000
O     6.087000000    -1.116000000    -4.458000000
H     5.453000000    -1.713000000    -4.856000000
H     5.763000000    -0.983000000    -3.567000000
O     0.084000000     0.538000000     4.649000000
H     0.552000000     0.584000000     5.483000000
H     0.032000000     1.447000000     4.354000000
O    -4.664000000     0.192000000    -5.306000000
H    -4.368000000    -0.407000000    -4.620000000
H    -3.941000000     0.810000000    -5.412000000
O     3.856000000    -1.471000000     3.479000000
H     4.032000000    -1.371000000     4.415000000
H     2.969000000    -1.129000000     3.364000000
O     4.926000000     6.682000000    -0.155000000
H     5.247000000     5.784000000    -0.072000000
H     4.074000000     6.594000000    -0.583000000
O    -3.040000000    -3.144000000     3.681000000
H    -2.868000000    -4.041000000     3.967000000
H    -3.924000000    -2.957000000     3.995000000
