158
-3016.44299
C     1.446000000     0.046000000    -0.375000000
H     2.517000000    -0.010000000    -0.552000000
C     0.668000000    -1.128000000    -0.199000000
H     1.062000000    -2.141000000    -0.221000000
C    -0.637000000    -0.965000000     0.136000000
H    -1.140000000    -1.858000000     0.345000000
C    -1.200000000     0.240000000     0.415000000
H    -2.228000000     0.224000000     0.768000000
C    -0.509000000     1.420000000     0.085000000
H    -0.999000000     2.366000000     0.299000000
C     0.850000000     1.307000000    -0.267000000
C     1.750000000     2.542000000    -0.375000000
O     2.916000000     2.420000000    -0.468000000
O     1.264000000     3.616000000    -0.143000000
O    -3.310000000    -7.355000000    -2.363000000
H    -2.771000000    -6.641000000    -2.023000000
H    -4.209000000    -7.091000000    -2.165000000
O    -0.774000000    -0.139000000    -5.235000000
H    -0.661000000    -1.065000000    -5.450000000
H     0.067000000     0.124000000    -4.861000000
O    -1.830000000     2.350000000     3.109000000
H    -0.881000000     2.431000000     3.021000000
H    -2.152000000     3.251000000     3.084000000
O    -2.055000000    -5.075000000    -1.937000000
H    -1.384000000    -5.008000000    -1.257000000
H    -1.776000000    -4.455000000    -2.610000000
O    -0.181000000     5.822000000     0.102000000
H     0.168000000     4.934000000     0.026000000
H    -0.389000000     5.919000000     1.032000000
O     0.841000000     2.869000000    -4.851000000
H     0.253000000     2.600000000    -5.557000000
H     0.492000000     3.710000000    -4.556000000
O     4.707000000     4.848000000     3.350000000
H     4.804000000     5.690000000     3.797000000
H     4.187000000     5.049000000     2.572000000
O     1.382000000    -5.204000000    -2.731000000
H     2.160000000    -5.245000000    -3.288000000
H     1.270000000    -6.098000000    -2.409000000
O     5.477000000    -1.599000000    -1.431000000
H     6.327000000    -1.202000000    -1.242000000
H     5.459000000    -2.392000000    -0.895000000
O    -4.225000000     3.858000000     0.851000000
H    -3.434000000     4.164000000     1.294000000
H    -4.474000000     3.065000000     1.326000000
O    -1.825000000    -4.572000000     5.053000000
H    -1.252000000    -3.885000000     4.712000000
H    -1.404000000    -4.854000000     5.865000000
O     4.863000000     7.609000000     0.660000000
H     4.975000000     8.027000000    -0.193000000
H     4.461000000     6.763000000     0.462000000
O    -5.833000000    -0.637000000    -1.447000000
H    -6.696000000    -0.715000000    -1.854000000
H    -5.325000000    -0.108000000    -2.063000000
O    -3.888000000     3.610000000    -1.676000000
H    -4.025000000     2.707000000    -1.965000000
H    -4.030000000     3.583000000    -0.730000000
O     5.494000000     4.996000000    -2.695000000
H     4.791000000     5.496000000    -3.108000000
H     6.140000000     5.655000000    -2.441000000
O     3.064000000    -4.559000000    -0.174000000
H     2.312000000    -4.875000000    -0.673000000
H     2.709000000    -4.356000000     0.691000000
O    -0.566000000    -3.198000000    -3.479000000
H    -0.205000000    -2.824000000    -4.284000000
H     0.201000000    -3.386000000    -2.938000000
O    -2.582000000     4.853000000     3.249000000
H    -3.035000000     5.640000000     2.945000000
H    -2.138000000     5.128000000     4.051000000
O     3.180000000     5.072000000     0.948000000
H     2.489000000     4.596000000     0.488000000
H     3.993000000     4.670000000     0.642000000
O     0.781000000     5.049000000    -2.884000000
H     1.051000000     4.561000000    -2.106000000
H    -0.115000000     5.329000000    -2.693000000
O    -1.047000000    -5.526000000     0.750000000
H    -1.786000000    -5.627000000     1.351000000
H    -0.409000000    -6.175000000     1.044000000
O    -6.323000000    -3.461000000     0.108000000
H    -5.872000000    -4.120000000    -0.419000000
H    -6.759000000    -2.899000000    -0.533000000
O     3.079000000     6.319000000    -3.875000000
H     2.812000000     6.625000000    -4.741000000
H     2.257000000     6.123000000    -3.425000000
O     4.203000000    -2.004000000     2.139000000
H     4.217000000    -1.100000000     1.825000000
H     3.273000000    -2.226000000     2.189000000
O    -1.468000000    -0.482000000     5.166000000
H    -0.754000000    -0.009000000     5.594000000
H    -2.203000000     0.132000000     5.179000000
O     3.653000000     2.249000000    -4.609000000
H     2.883000000     2.815000000    -4.552000000
H     3.773000000     1.917000000    -3.719000000
O    -4.881000000    -5.279000000    -1.811000000
H    -5.185000000    -4.949000000    -2.657000000
H    -3.927000000    -5.221000000    -1.861000000
O    -1.962000000     5.566000000    -2.058000000
H    -2.655000000     4.918000000    -1.927000000
H    -1.900000000     6.023000000    -1.219000000
O     4.276000000     0.995000000    -2.194000000
H     4.416000000     0.291000000    -1.560000000
H     3.848000000     1.688000000    -1.691000000
O    -3.986000000    -4.629000000     1.518000000
H    -4.559000000    -4.279000000     0.835000000
H    -3.306000000    -3.964000000     1.624000000
O     4.766000000     2.007000000     3.903000000
H     4.565000000     2.922000000     3.706000000
H     5.009000000     2.010000000     4.829000000
O    -0.134000000     6.794000000     2.889000000
H    -0.430000000     6.788000000     3.799000000
H     0.814000000     6.913000000     2.947000000
O     1.474000000    -3.905000000     2.312000000
H     0.786000000    -4.484000000     1.983000000
H     1.009000000    -3.260000000     2.845000000
O    -2.904000000    -1.912000000    -2.243000000
H    -2.010000000    -2.131000000    -2.506000000
H    -2.807000000    -1.148000000    -1.675000000
O     5.390000000     3.571000000    -0.139000000
H     5.592000000     3.935000000    -1.001000000
H     4.559000000     3.112000000    -0.262000000
O     0.423000000     8.535000000     0.473000000
H     0.044000000     7.711000000     0.169000000
H    -0.049000000     8.731000000     1.283000000
O     6.759000000     0.691000000    -3.435000000
H     6.997000000     1.604000000    -3.278000000
H     5.828000000     0.645000000    -3.216000000
O     4.210000000     0.679000000     1.558000000
H     3.974000000     1.553000000     1.245000000
H     4.784000000     0.840000000     2.307000000
O    -3.989000000     1.478000000     2.089000000
H    -3.928000000     0.525000000     2.035000000
H    -3.132000000     1.756000000     2.410000000
O    -5.572000000    -0.964000000     5.163000000
H    -5.523000000    -1.154000000     4.226000000
H    -5.448000000    -1.813000000     5.586000000
O     1.983000000     3.298000000     2.991000000
H     2.386000000     4.042000000     3.438000000
H     1.956000000     3.559000000     2.070000000
O     1.992000000     0.191000000     4.601000000
H     2.372000000     0.878000000     4.053000000
H     1.443000000    -0.316000000     4.004000000
O     5.870000000    -4.143000000    -0.631000000
H     6.246000000    -4.583000000     0.131000000
H     4.947000000    -4.023000000    -0.407000000
O    -6.785000000     2.034000000     0.229000000
H    -7.374000000     1.921000000    -0.517000000
H    -6.215000000     1.265000000     0.202000000
O     1.715000000    -1.407000000    -3.366000000
H     2.425000000    -0.800000000    -3.576000000
H     1.394000000    -1.113000000    -2.513000000
O    -4.434000000    -3.342000000    -3.782000000
H    -4.030000000    -2.673000000    -3.229000000
H    -5.361000000    -3.106000000    -3.805000000
O    -4.876000000    -1.265000000     1.084000000
H    -4.826000000    -0.926000000     0.190000000
H    -5.275000000    -2.130000000     0.990000000
O     0.201000000    -2.738000000     4.230000000
H    -0.296000000    -1.989000000     4.557000000
H     0.854000000    -2.908000000     4.910000000
