158
-3061.83412
C     1.369000000    -0.737000000    -0.164000000
H     2.271000000    -1.333000000    -0.278000000
C     0.135000000    -1.353000000     0.196000000
H    -0.036000000    -2.414000000     0.360000000
C    -1.036000000    -0.571000000     0.237000000
H    -2.003000000    -1.013000000     0.594000000
C    -1.005000000     0.761000000     0.007000000
H    -1.911000000     1.354000000     0.099000000
C     0.213000000     1.351000000    -0.363000000
H     0.099000000     2.432000000    -0.353000000
C     1.437000000     0.645000000    -0.404000000
C     2.688000000     1.419000000    -0.611000000
O     3.780000000     0.953000000    -0.289000000
O     2.574000000     2.565000000    -0.942000000
O    -2.931000000     3.239000000     2.424000000
H    -2.729000000     2.312000000     2.544000000
H    -3.579000000     3.433000000     3.102000000
O    -1.760000000    -3.290000000    -2.415000000
H    -1.553000000    -3.876000000    -1.687000000
H    -1.025000000    -3.388000000    -3.019000000
O     7.967000000    -0.354000000     2.564000000
H     8.061000000     0.585000000     2.724000000
H     7.057000000    -0.459000000     2.287000000
O    -0.128000000     5.850000000    -1.166000000
H    -0.813000000     5.349000000    -0.724000000
H     0.367000000     5.195000000    -1.659000000
O    -5.316000000    -1.584000000    -3.526000000
H    -5.223000000    -1.092000000    -2.710000000
H    -5.647000000    -0.944000000    -4.156000000
O    -3.953000000    -0.175000000     5.297000000
H    -3.378000000    -0.275000000     6.056000000
H    -4.796000000     0.087000000     5.668000000
O     1.200000000    -2.470000000     3.194000000
H     1.818000000    -2.794000000     2.539000000
H     1.073000000    -1.548000000     2.967000000
O    -5.658000000    -0.012000000     2.749000000
H    -6.134000000    -0.795000000     2.474000000
H    -4.940000000    -0.344000000     3.288000000
O     2.122000000     6.910000000     0.187000000
H     2.823000000     6.276000000     0.041000000
H     1.341000000     6.491000000    -0.174000000
O     1.920000000    -4.118000000     1.144000000
H     2.467000000    -4.686000000     0.602000000
H     1.073000000    -4.563000000     1.179000000
O    -7.150000000     2.540000000     0.685000000
H    -8.047000000     2.576000000     0.352000000
H    -6.648000000     2.135000000    -0.022000000
O     0.618000000     4.412000000     3.663000000
H     0.067000000     3.647000000     3.829000000
H     1.110000000     4.186000000     2.874000000
O     6.949000000     1.626000000    -3.166000000
H     6.365000000     2.362000000    -2.985000000
H     6.670000000     0.943000000    -2.556000000
O     1.676000000    -4.504000000    -2.032000000
H     0.832000000    -4.491000000    -1.581000000
H     1.594000000    -3.838000000    -2.714000000
O     0.344000000    -3.048000000    -4.216000000
H     0.441000000    -2.096000000    -4.212000000
H     0.177000000    -3.269000000    -5.132000000
O    -0.485000000     1.673000000     4.794000000
H    -0.696000000     2.167000000     5.587000000
H    -1.293000000     1.207000000     4.581000000
O     1.916000000     3.982000000     1.460000000
H     1.569000000     3.534000000     0.688000000
H     2.827000000     4.174000000     1.236000000
O     4.199000000     4.887000000     0.340000000
H     3.954000000     4.144000000    -0.211000000
H     5.097000000     4.697000000     0.613000000
O     0.936000000     3.923000000    -2.576000000
H     1.692000000     3.516000000    -2.152000000
H     0.528000000     3.214000000    -3.072000000
O    -3.928000000    -2.917000000    -0.853000000
H    -4.189000000    -3.804000000    -1.103000000
H    -3.265000000    -2.671000000    -1.498000000
O     4.804000000     3.328000000    -2.549000000
H     4.567000000     2.948000000    -3.396000000
H     4.290000000     2.832000000    -1.912000000
O     4.270000000    -2.852000000     2.219000000
H     4.729000000    -3.574000000     2.648000000
H     3.533000000    -3.269000000     1.773000000
O     5.380000000     5.948000000    -3.357000000
H     5.278000000     5.184000000    -2.789000000
H     4.707000000     5.837000000    -4.029000000
O    -3.064000000    -3.124000000     1.805000000
H    -3.686000000    -3.253000000     1.089000000
H    -3.606000000    -3.118000000     2.595000000
O     3.394000000     0.229000000    -3.824000000
H     4.045000000     0.327000000    -3.130000000
H     3.501000000     1.011000000    -4.365000000
O    -3.278000000     2.411000000    -1.908000000
H    -2.548000000     2.903000000    -1.534000000
H    -3.720000000     2.025000000    -1.152000000
O     5.341000000    -0.401000000    -1.957000000
H     5.082000000    -1.309000000    -1.799000000
H     4.937000000     0.091000000    -1.242000000
O    -1.950000000     4.220000000    -0.034000000
H    -2.493000000     4.992000000    -0.195000000
H    -2.131000000     3.985000000     0.876000000
O    -4.400000000     1.552000000     0.611000000
H    -4.132000000     2.392000000     0.984000000
H    -4.668000000     1.030000000     1.368000000
O    -0.949000000    -4.925000000    -0.390000000
H    -1.097000000    -5.865000000    -0.286000000
H    -0.741000000    -4.616000000     0.491000000
O    -2.376000000     0.646000000     3.125000000
H    -1.930000000    -0.125000000     2.775000000
H    -2.934000000     0.303000000     3.823000000
O    -1.342000000     1.019000000    -3.506000000
H    -1.995000000     1.447000000    -2.951000000
H    -1.654000000     0.119000000    -3.592000000
O     7.084000000     1.853000000     0.104000000
H     7.500000000     2.446000000     0.730000000
H     6.183000000     1.770000000     0.414000000
O    -2.716000000    -1.356000000    -4.105000000
H    -3.669000000    -1.442000000    -4.069000000
H    -2.388000000    -2.115000000    -3.624000000
O    -6.837000000    -1.398000000     0.696000000
H    -6.301000000    -0.984000000     0.019000000
H    -7.110000000    -2.230000000     0.311000000
O     0.929000000    -0.412000000    -4.684000000
H     1.769000000    -0.178000000    -4.290000000
H     0.286000000     0.110000000    -4.203000000
O    -4.562000000    -2.635000000     3.919000000
H    -5.417000000    -2.820000000     4.308000000
H    -4.184000000    -1.961000000     4.483000000
O     0.990000000     0.338000000     2.770000000
H     1.150000000     0.897000000     2.009000000
H     0.418000000     0.859000000     3.334000000
O     6.227000000     3.894000000     1.749000000
H     6.705000000     4.697000000     1.954000000
H     5.832000000     3.631000000     2.581000000
O     5.345000000    -0.405000000     1.440000000
H     4.821000000     0.103000000     0.820000000
H     4.754000000    -1.094000000     1.743000000
O     4.467000000    -3.170000000    -1.832000000
H     4.870000000    -3.922000000    -1.397000000
H     3.528000000    -3.357000000    -1.813000000
O     2.687000000    -0.140000000     4.923000000
H     1.986000000     0.327000000     5.378000000
H     2.326000000    -0.331000000     4.058000000
O     4.214000000     2.688000000    -5.142000000
H     3.382000000     3.032000000    -5.466000000
H     4.815000000     2.780000000    -5.881000000
O     3.787000000    -2.421000000    -4.508000000
H     3.532000000    -1.499000000    -4.518000000
H     4.125000000    -2.567000000    -3.625000000
O    -5.268000000    -0.289000000    -1.218000000
H    -4.630000000    -0.842000000    -0.767000000
H    -5.118000000     0.588000000    -0.863000000
O     8.075000000    -1.239000000    -0.113000000
H     7.336000000    -0.649000000    -0.262000000
H     8.453000000    -0.945000000     0.715000000
O    -0.690000000    -4.213000000     2.406000000
H    -1.444000000    -3.677000000     2.161000000
H    -0.034000000    -3.583000000     2.703000000
O    -2.768000000    -5.377000000     4.156000000
H    -2.176000000    -6.125000000     4.076000000
H    -2.346000000    -4.682000000     3.651000000
