158
-3056.39360
C     1.471000000    -0.001000000    -0.358000000
H     2.512000000    -0.231000000    -0.569000000
C     0.779000000    -0.914000000     0.495000000
H     1.367000000    -1.755000000     0.855000000
C    -0.574000000    -0.747000000     0.778000000
H    -1.134000000    -1.535000000     1.324000000
C    -1.268000000     0.294000000     0.166000000
H    -2.343000000     0.362000000     0.315000000
C    -0.572000000     1.197000000    -0.709000000
H    -1.181000000     1.991000000    -1.136000000
C     0.785000000     0.999000000    -0.988000000
C     1.398000000     1.793000000    -2.045000000
O     2.280000000     1.394000000    -2.789000000
O     1.094000000     2.949000000    -2.173000000
O    -1.018000000    -4.761000000     5.503000000
H    -0.378000000    -5.050000000     4.852000000
H    -1.582000000    -5.522000000     5.639000000
O     1.902000000    -0.640000000    -4.680000000
H     2.002000000    -0.311000000    -5.573000000
H     2.102000000     0.113000000    -4.123000000
O     3.771000000     5.693000000     0.361000000
H     4.446000000     6.343000000     0.166000000
H     3.247000000     5.645000000    -0.439000000
O    -1.608000000     0.134000000     7.884000000
H    -2.302000000     0.766000000     7.694000000
H    -1.236000000    -0.078000000     7.028000000
O     0.406000000    -5.637000000     3.196000000
H     1.017000000    -5.498000000     2.472000000
H     0.900000000    -6.157000000     3.829000000
O    -5.147000000     1.792000000    -0.689000000
H    -5.825000000     2.328000000    -1.102000000
H    -4.428000000     2.402000000    -0.523000000
O     0.989000000     2.725000000    -5.105000000
H     0.370000000     1.998000000    -5.165000000
H     1.222000000     2.766000000    -4.178000000
O    -5.349000000    -0.927000000     3.692000000
H    -4.530000000    -0.465000000     3.513000000
H    -5.191000000    -1.820000000     3.385000000
O    -6.998000000     1.764000000     1.617000000
H    -6.550000000     1.355000000     2.357000000
H    -6.441000000     1.571000000     0.863000000
O    -2.405000000     3.059000000    -3.859000000
H    -2.671000000     3.959000000    -3.672000000
H    -1.454000000     3.104000000    -3.951000000
O    -0.435000000     4.443000000    -0.523000000
H     0.171000000     4.092000000    -1.176000000
H     0.005000000     5.222000000    -0.183000000
O     3.347000000    -3.550000000     2.816000000
H     4.089000000    -3.068000000     2.449000000
H     2.954000000    -3.993000000     2.064000000
O    -0.557000000    -2.452000000    -3.907000000
H     0.190000000    -2.121000000    -4.406000000
H    -1.320000000    -2.061000000    -4.331000000
O    -4.216000000    -5.767000000     1.268000000
H    -4.887000000    -5.109000000     1.450000000
H    -3.417000000    -5.407000000     1.651000000
O     3.421000000    -2.780000000    -3.539000000
H     3.669000000    -3.216000000    -4.355000000
H     2.918000000    -2.015000000    -3.820000000
O    -5.416000000     4.615000000    -1.807000000
H    -5.841000000     5.435000000    -1.555000000
H    -4.600000000     4.604000000    -1.306000000
O     3.666000000     3.488000000    -4.398000000
H     3.157000000     2.816000000    -3.944000000
H     3.655000000     3.217000000    -5.316000000
O     5.465000000    -2.342000000     1.059000000
H     5.177000000    -2.881000000     0.322000000
H     5.712000000    -1.507000000     0.662000000
O    -2.770000000     0.126000000     4.329000000
H    -2.589000000    -0.807000000     4.218000000
H    -2.078000000     0.565000000     3.834000000
O    -3.226000000    -4.984000000    -2.144000000
H    -3.914000000    -4.372000000    -1.881000000
H    -2.409000000    -4.527000000    -1.944000000
O    -1.274000000     0.999000000    -5.924000000
H    -1.871000000     1.004000000    -5.175000000
H    -1.150000000     0.072000000    -6.125000000
O     0.321000000     5.973000000    -3.629000000
H     0.677000000     5.479000000    -4.367000000
H    -0.628000000     5.892000000    -3.723000000
O     5.493000000    -3.151000000    -1.702000000
H     4.817000000    -3.110000000    -2.377000000
H     6.081000000    -3.848000000    -1.992000000
O     4.723000000     1.770000000    -2.125000000
H     5.041000000     2.455000000    -2.713000000
H     3.830000000     1.594000000    -2.423000000
O     2.936000000     3.181000000    -7.119000000
H     2.183000000     3.045000000    -6.545000000
H     3.214000000     2.298000000    -7.363000000
O     2.464000000    -5.392000000     0.855000000
H     3.085000000    -6.038000000     0.520000000
H     2.167000000    -4.919000000     0.077000000
O     2.337000000     5.111000000    -1.822000000
H     1.786000000     5.596000000    -2.436000000
H     2.066000000     4.199000000    -1.926000000
O    -1.965000000    -4.830000000     2.339000000
H    -1.397000000    -5.436000000     2.814000000
H    -1.601000000    -4.804000000     1.454000000
O    -6.059000000    -3.978000000     2.118000000
H    -6.657000000    -3.348000000     1.717000000
H    -6.363000000    -4.055000000     3.022000000
O     2.508000000    -1.295000000     4.154000000
H     2.427000000    -0.410000000     3.797000000
H     2.468000000    -1.867000000     3.388000000
O     6.697000000    -0.578000000    -2.882000000
H     7.066000000    -1.333000000    -3.341000000
H     6.228000000    -0.956000000    -2.139000000
O     5.767000000     0.337000000     0.197000000
H     5.413000000     0.861000000     0.915000000
H     5.513000000     0.813000000    -0.594000000
O    -0.579000000    -5.443000000     0.159000000
H     0.269000000    -5.514000000     0.597000000
H    -0.408000000    -4.891000000    -0.605000000
O    -6.682000000    -0.883000000    -1.018000000
H    -6.198000000    -0.081000000    -1.217000000
H    -7.259000000    -1.008000000    -1.772000000
O    -2.325000000    -7.492000000     0.196000000
H    -1.773000000    -6.755000000    -0.065000000
H    -3.091000000    -7.085000000     0.602000000
O     0.370000000     3.471000000     2.009000000
H    -0.152000000     3.805000000     1.279000000
H     0.009000000     2.603000000     2.185000000
O     2.741000000     1.144000000     2.975000000
H     3.302000000     1.545000000     2.311000000
H     2.532000000     1.859000000     3.576000000
O    -4.376000000    -4.621000000     4.675000000
H    -3.775000000    -3.885000000     4.563000000
H    -3.842000000    -5.309000000     5.072000000
O    -0.701000000    -3.102000000    -1.355000000
H    -0.936000000    -2.192000000    -1.171000000
H    -0.492000000    -3.112000000    -2.289000000
O    -2.465000000    -2.649000000     4.062000000
H    -2.476000000    -3.322000000     3.382000000
H    -1.810000000    -2.954000000     4.690000000
O    -3.298000000    -0.252000000    -4.200000000
H    -3.906000000    -0.984000000    -4.089000000
H    -3.548000000     0.371000000    -3.518000000
O     4.982000000    -0.434000000    -5.093000000
H     4.877000000    -1.384000000    -5.147000000
H     5.575000000    -0.300000000    -4.354000000
O     1.938000000    -3.849000000    -1.170000000
H     2.533000000    -3.281000000    -1.659000000
H     1.099000000    -3.389000000    -1.188000000
O    -5.286000000    -3.514000000    -1.094000000
H    -6.102000000    -3.400000000    -1.580000000
H    -5.250000000    -2.760000000    -0.505000000
O    -3.101000000     3.862000000    -0.121000000
H    -3.217000000     4.432000000     0.639000000
H    -2.239000000     4.095000000    -0.465000000
O     0.566000000     0.081000000     6.017000000
H     1.089000000     0.870000000     6.157000000
H     1.174000000    -0.541000000     5.618000000
O     3.787000000     2.514000000     0.680000000
H     3.754000000     2.330000000    -0.259000000
H     3.237000000     3.289000000     0.792000000
O    -0.349000000     1.118000000     3.015000000
H     0.211000000     0.742000000     2.337000000
H     0.242000000     1.279000000     3.751000000
