158
-3051.73623
C     1.174000000     0.824000000     0.341000000
H     2.104000000     1.325000000     0.597000000
C     0.967000000    -0.485000000     0.768000000
H     1.711000000    -0.913000000     1.435000000
C    -0.193000000    -1.169000000     0.372000000
H    -0.326000000    -2.178000000     0.713000000
C    -1.109000000    -0.546000000    -0.494000000
H    -1.961000000    -1.098000000    -0.881000000
C    -0.876000000     0.790000000    -0.893000000
H    -1.629000000     1.300000000    -1.489000000
C     0.280000000     1.462000000    -0.530000000
C     0.491000000     2.921000000    -0.941000000
O     1.486000000     3.566000000    -0.569000000
O    -0.228000000     3.375000000    -1.824000000
O     3.066000000     2.525000000    -2.645000000
H     3.000000000     3.308000000    -3.191000000
H     2.662000000     2.777000000    -1.815000000
O    -4.155000000    -3.109000000    -3.462000000
H    -4.261000000    -2.320000000    -2.930000000
H    -3.344000000    -3.505000000    -3.143000000
O    -3.977000000    -3.064000000     4.595000000
H    -4.049000000    -2.909000000     5.537000000
H    -4.402000000    -3.911000000     4.459000000
O     0.207000000    -4.622000000     3.236000000
H     0.451000000    -5.546000000     3.173000000
H     1.009000000    -4.147000000     3.022000000
O     1.558000000     0.474000000     4.149000000
H     1.007000000    -0.228000000     3.803000000
H     2.357000000     0.032000000     4.436000000
O    -2.812000000     4.004000000    -2.636000000
H    -2.052000000     3.810000000    -2.087000000
H    -3.551000000     3.619000000    -2.167000000
O    -4.372000000     1.710000000    -1.040000000
H    -3.851000000     2.232000000    -0.430000000
H    -4.968000000     2.340000000    -1.446000000
O    -4.467000000     3.265000000    -5.611000000
H    -3.539000000     3.289000000    -5.845000000
H    -4.511000000     2.666000000    -4.866000000
O    -0.058000000     1.787000000    -4.031000000
H     0.747000000     2.058000000    -4.471000000
H    -0.167000000     2.419000000    -3.320000000
O     3.140000000     7.280000000     1.118000000
H     2.548000000     6.618000000     1.476000000
H     2.596000000     8.062000000     1.025000000
O    -0.348000000    -1.518000000     3.836000000
H    -0.804000000    -2.037000000     3.173000000
H    -0.244000000    -2.115000000     4.577000000
O    -4.495000000    -1.098000000     2.746000000
H    -4.255000000    -1.729000000     3.425000000
H    -3.686000000    -0.617000000     2.570000000
O    -4.706000000    -0.956000000    -0.783000000
H    -4.545000000    -0.022000000    -0.650000000
H    -3.849000000    -1.366000000    -0.668000000
O     7.055000000     1.205000000     0.242000000
H     7.858000000     1.689000000     0.435000000
H     6.513000000     1.321000000     1.023000000
O    -1.298000000     5.111000000     1.897000000
H    -1.988000000     5.475000000     2.452000000
H    -1.036000000     4.304000000     2.340000000
O    -0.155000000    -1.896000000    -5.194000000
H    -0.400000000    -2.389000000    -4.411000000
H    -0.787000000    -1.177000000    -5.231000000
O    -3.183000000     3.509000000     0.316000000
H    -3.760000000     3.579000000     1.076000000
H    -2.311000000     3.702000000     0.659000000
O     3.167000000    -0.012000000    -3.622000000
H     4.050000000    -0.029000000    -3.990000000
H     3.203000000     0.665000000    -2.946000000
O    -0.882000000     5.447000000    -3.972000000
H    -1.394000000     4.815000000    -3.467000000
H     0.018000000     5.128000000    -3.914000000
O    -2.594000000     0.710000000     1.981000000
H    -1.835000000     1.022000000     2.473000000
H    -2.248000000     0.504000000     1.113000000
O     1.275000000     5.288000000     1.510000000
H     0.325000000     5.347000000     1.611000000
H     1.402000000     4.631000000     0.826000000
O     1.233000000     6.056000000    -1.683000000
H     1.291000000     5.145000000    -1.395000000
H     0.354000000     6.333000000    -1.425000000
O     4.229000000    -1.532000000     2.382000000
H     3.771000000    -2.248000000     1.941000000
H     3.746000000    -1.405000000     3.198000000
O     1.881000000    -1.964000000    -1.960000000
H     2.223000000    -1.346000000    -2.606000000
H     1.355000000    -1.426000000    -1.368000000
O    -7.171000000    -1.665000000     0.266000000
H    -6.452000000    -1.369000000    -0.293000000
H    -6.887000000    -1.451000000     1.155000000
O     3.957000000     6.352000000    -1.556000000
H     3.964000000     6.678000000    -0.656000000
H     3.067000000     6.027000000    -1.687000000
O    -2.331000000    -3.541000000     2.201000000
H    -2.938000000    -3.502000000     2.940000000
H    -1.663000000    -4.170000000     2.473000000
O     2.097000000    -4.547000000    -3.003000000
H     1.907000000    -3.672000000    -2.666000000
H     1.888000000    -5.134000000    -2.277000000
O    -1.581000000     6.326000000    -1.005000000
H    -1.825000000     5.643000000    -1.629000000
H    -1.652000000     5.905000000    -0.148000000
O    -1.760000000    -3.964000000    -0.576000000
H    -1.874000000    -3.690000000     0.334000000
H    -2.644000000    -4.179000000    -0.874000000
O    -1.495000000    -3.954000000    -3.419000000
H    -0.927000000    -4.501000000    -3.962000000
H    -1.195000000    -4.112000000    -2.524000000
O     1.770000000     4.990000000    -4.248000000
H     1.728000000     5.755000000    -3.674000000
H     1.947000000     5.351000000    -5.116000000
O     2.422000000     3.033000000     3.887000000
H     2.709000000     3.228000000     2.995000000
H     2.157000000     2.113000000     3.857000000
O     3.706000000     2.999000000     1.385000000
H     4.554000000     3.436000000     1.309000000
H     3.124000000     3.506000000     0.818000000
O    -0.580000000    -3.656000000     5.549000000
H    -0.429000000    -4.120000000     4.725000000
H    -0.843000000    -4.341000000     6.164000000
O    -4.625000000     0.787000000    -3.820000000
H    -5.570000000     0.651000000    -3.894000000
H    -4.504000000     1.154000000    -2.944000000
O    -0.873000000     2.529000000     3.329000000
H     0.021000000     2.223000000     3.485000000
H    -1.242000000     2.646000000     4.204000000
O     4.320000000    -3.177000000    -0.795000000
H     3.472000000    -2.838000000    -1.083000000
H     4.777000000    -2.412000000    -0.445000000
O    -5.389000000     1.991000000     2.172000000
H    -5.179000000     1.701000000     3.059000000
H    -4.960000000     1.352000000     1.603000000
O     0.164000000    -7.676000000     0.496000000
H     0.971000000    -8.146000000     0.286000000
H    -0.537000000    -8.274000000     0.235000000
O     2.582000000    -3.817000000     2.002000000
H     2.261000000    -4.023000000     1.124000000
H     3.145000000    -4.557000000     2.231000000
O    -2.088000000     0.017000000    -5.000000000
H    -3.003000000     0.119000000    -4.738000000
H    -1.702000000     0.881000000    -4.862000000
O    -2.374000000    -7.597000000     2.970000000
H    -2.948000000    -7.333000000     3.689000000
H    -1.706000000    -6.912000000     2.933000000
O     2.926000000    -5.433000000    -0.390000000
H     3.383000000    -5.944000000     0.278000000
H     3.598000000    -4.854000000    -0.750000000
O    -4.506000000    -4.694000000    -0.763000000
H    -4.487000000    -5.471000000    -0.205000000
H    -5.414000000    -4.635000000    -1.060000000
O     3.668000000    -0.868000000     5.088000000
H     4.598000000    -0.688000000     5.225000000
H     3.329000000    -1.052000000     5.964000000
O     5.313000000     0.976000000     2.489000000
H     4.595000000     1.549000000     2.216000000
H     5.003000000     0.093000000     2.291000000
O    -1.837000000     3.762000000    -6.442000000
H    -1.325000000     4.179000000    -5.749000000
H    -1.359000000     2.958000000    -6.642000000
