158
-3049.54611
C     1.096000000     1.010000000     0.046000000
H     1.922000000     1.712000000     0.131000000
C     0.911000000    -0.018000000     0.976000000
H     1.629000000    -0.104000000     1.788000000
C    -0.162000000    -0.909000000     0.899000000
H    -0.411000000    -1.740000000     1.636000000
C    -1.069000000    -0.709000000    -0.157000000
H    -1.855000000    -1.423000000    -0.390000000
C    -0.906000000     0.304000000    -1.106000000
H    -1.668000000     0.412000000    -1.873000000
C     0.215000000     1.179000000    -1.063000000
C     0.468000000     2.191000000    -2.139000000
O     1.497000000     2.814000000    -2.112000000
O    -0.099000000     2.217000000    -3.184000000
O     3.390000000     2.716000000    -4.200000000
H     3.262000000     3.517000000    -4.708000000
H     2.689000000     2.730000000    -3.550000000
O    -4.086000000    -1.116000000     6.696000000
H    -4.109000000    -0.804000000     7.601000000
H    -3.258000000    -0.782000000     6.349000000
O     0.681000000    -4.330000000     1.039000000
H     0.796000000    -4.110000000     1.963000000
H     1.572000000    -4.395000000     0.696000000
O    -4.059000000    -0.227000000     3.805000000
H    -3.814000000    -1.103000000     4.105000000
H    -3.376000000     0.345000000     4.154000000
O    -2.643000000     2.642000000    -2.629000000
H    -1.718000000     2.442000000    -2.772000000
H    -2.637000000     3.459000000    -2.129000000
O     0.655000000     3.160000000    -5.530000000
H     0.854000000     2.249000000    -5.747000000
H     0.180000000     3.110000000    -4.700000000
O    -4.393000000     0.924000000     1.366000000
H    -4.414000000     0.207000000     0.732000000
H    -4.590000000     0.509000000     2.205000000
O    -2.560000000     2.371000000     4.613000000
H    -2.516000000     2.108000000     3.694000000
H    -3.074000000     3.179000000     4.606000000
O    -1.799000000     4.721000000    -1.007000000
H    -1.562000000     5.541000000    -1.440000000
H    -1.311000000     4.734000000    -0.184000000
O    -1.673000000    -2.335000000    -3.991000000
H    -1.832000000    -2.626000000    -4.889000000
H    -2.221000000    -2.907000000    -3.453000000
O     5.533000000    -0.244000000    -3.064000000
H     4.697000000     0.117000000    -3.358000000
H     5.395000000    -1.191000000    -3.052000000
O     4.249000000    -0.020000000     0.905000000
H     4.808000000     0.561000000     0.389000000
H     4.476000000    -0.900000000     0.604000000
O     2.796000000    -0.076000000    -3.959000000
H     2.232000000    -0.625000000    -4.503000000
H     2.562000000     0.821000000    -4.199000000
O    -6.052000000    -3.262000000    -1.291000000
H    -6.934000000    -2.889000000    -1.294000000
H    -5.874000000    -3.449000000    -0.370000000
O    -4.290000000     4.102000000    -5.313000000
H    -3.975000000     4.061000000    -4.410000000
H    -3.521000000     3.898000000    -5.845000000
O     2.039000000     5.371000000    -2.150000000
H     1.759000000     4.460000000    -2.240000000
H     2.443000000     5.582000000    -2.992000000
O    -0.375000000     6.706000000    -4.855000000
H     0.125000000     6.436000000    -4.085000000
H    -0.074000000     6.124000000    -5.553000000
O     5.715000000     4.813000000    -0.554000000
H     6.219000000     4.948000000    -1.357000000
H     4.989000000     4.248000000    -0.820000000
O    -0.563000000    -0.876000000     4.173000000
H     0.076000000    -1.568000000     4.001000000
H    -0.092000000    -0.246000000     4.719000000
O     1.486000000    -2.106000000    -4.899000000
H     0.598000000    -1.837000000    -4.663000000
H     1.362000000    -2.802000000    -5.544000000
O    -3.601000000    -3.944000000    -2.436000000
H    -3.048000000    -4.243000000    -1.715000000
H    -4.387000000    -3.602000000    -2.010000000
O    -0.723000000     0.757000000    -7.710000000
H    -0.727000000     0.455000000    -6.802000000
H     0.179000000     1.036000000    -7.866000000
O     1.330000000     7.161000000    -0.047000000
H     1.457000000     6.333000000    -0.510000000
H     1.882000000     7.785000000    -0.518000000
O     4.110000000     2.544000000    -1.334000000
H     4.249000000     2.459000000    -2.277000000
H     3.280000000     3.014000000    -1.256000000
O    -3.273000000    -5.658000000     3.313000000
H    -2.945000000    -4.839000000     2.941000000
H    -3.323000000    -6.257000000     2.568000000
O     2.401000000    -4.032000000    -2.758000000
H     1.865000000    -3.301000000    -2.453000000
H     2.485000000    -3.890000000    -3.701000000
O    -3.107000000    -3.323000000     2.093000000
H    -2.374000000    -3.313000000     1.478000000
H    -3.263000000    -2.400000000     2.295000000
O    -4.559000000    -0.781000000    -0.828000000
H    -4.647000000    -0.044000000    -1.433000000
H    -4.938000000    -1.524000000    -1.298000000
O     2.705000000     5.250000000    -5.584000000
H     2.873000000     5.707000000    -6.408000000
H     1.892000000     4.768000000    -5.739000000
O    -5.578000000    -4.085000000     1.212000000
H    -6.227000000    -3.818000000     1.862000000
H    -4.738000000    -3.997000000     1.662000000
O     3.902000000    -6.563000000     1.444000000
H     4.690000000    -6.374000000     0.934000000
H     3.272000000    -5.899000000     1.166000000
O     2.456000000     5.729000000     2.667000000
H     2.352000000     6.473000000     2.073000000
H     1.578000000     5.353000000     2.736000000
O     6.653000000     2.391000000     0.973000000
H     6.060000000     2.862000000     0.388000000
H     6.871000000     1.589000000     0.498000000
O    -1.087000000    -2.830000000     6.775000000
H    -1.405000000    -3.652000000     6.400000000
H    -0.697000000    -3.083000000     7.611000000
O    -1.798000000    -4.781000000    -0.258000000
H    -1.547000000    -5.130000000    -1.113000000
H    -0.968000000    -4.657000000     0.203000000
O    -5.322000000     1.278000000    -2.167000000
H    -4.506000000     1.752000000    -2.327000000
H    -6.008000000     1.935000000    -2.282000000
O    -2.765000000    -7.161000000     1.039000000
H    -1.928000000    -7.448000000     1.402000000
H    -2.529000000    -6.511000000     0.377000000
O    -0.410000000     4.089000000     1.611000000
H    -0.432000000     4.619000000     2.408000000
H    -1.068000000     3.409000000     1.757000000
O     3.580000000     0.924000000     3.638000000
H     3.953000000     0.523000000     2.853000000
H     4.104000000     1.712000000     3.777000000
O     3.036000000    -1.535000000    -1.729000000
H     2.969000000    -0.956000000    -2.488000000
H     2.753000000    -0.997000000    -0.990000000
O    -0.939000000     0.126000000     6.932000000
H    -0.830000000    -0.807000000     6.747000000
H    -0.256000000     0.553000000     6.415000000
O     1.243000000    -3.545000000     3.775000000
H     1.604000000    -3.138000000     4.562000000
H     1.037000000    -4.441000000     4.041000000
O     3.748000000     1.901000000    -6.961000000
H     3.511000000     2.018000000    -6.041000000
H     4.458000000     2.526000000    -7.106000000
O    -0.624000000     0.108000000    -5.050000000
H    -1.013000000    -0.596000000    -4.532000000
H    -0.576000000     0.850000000    -4.448000000
O     3.349000000    -4.087000000    -0.159000000
H     3.047000000    -4.245000000    -1.053000000
H     3.167000000    -3.160000000    -0.005000000
O    -2.003000000     1.668000000     2.045000000
H    -2.797000000     1.619000000     1.513000000
H    -1.427000000     0.997000000     1.678000000
O     1.561000000     0.754000000     5.584000000
H     2.272000000     0.644000000     4.953000000
H     1.711000000     1.619000000     5.965000000
O     2.935000000    -1.651000000     5.551000000
H     2.950000000    -1.664000000     4.594000000
H     2.416000000    -0.878000000     5.772000000
