158
-3055.11157
C     1.466000000    -0.273000000    -0.126000000
H     2.507000000    -0.579000000    -0.191000000
C     0.455000000    -0.982000000    -0.717000000
H     0.683000000    -1.814000000    -1.378000000
C    -0.868000000    -0.672000000    -0.492000000
H    -1.583000000    -1.154000000    -1.140000000
C    -1.239000000     0.345000000     0.402000000
H    -2.271000000     0.604000000     0.627000000
C    -0.200000000     1.069000000     0.983000000
H    -0.523000000     1.967000000     1.502000000
C     1.143000000     0.823000000     0.671000000
C     2.224000000     1.732000000     1.204000000
O     3.373000000     1.517000000     0.953000000
O     1.942000000     2.568000000     2.026000000
O     1.403000000    -4.735000000    -0.784000000
H     0.756000000    -4.065000000    -1.005000000
H     2.079000000    -4.647000000    -1.456000000
O    -2.329000000    -1.882000000     3.448000000
H    -2.812000000    -1.800000000     4.270000000
H    -2.598000000    -2.730000000     3.095000000
O     2.313000000     5.053000000     1.450000000
H     1.848000000     5.560000000     2.115000000
H     2.345000000     4.164000000     1.805000000
O    -4.456000000    -3.411000000    -3.599000000
H    -5.332000000    -3.179000000    -3.908000000
H    -3.925000000    -2.636000000    -3.782000000
O     3.027000000    -3.637000000    -2.733000000
H     3.540000000    -4.173000000    -3.338000000
H     3.650000000    -2.993000000    -2.396000000
O    -0.434000000    -0.927000000    -4.661000000
H     0.021000000    -0.086000000    -4.608000000
H    -0.675000000    -1.011000000    -5.583000000
O    -3.229000000     2.972000000    -5.329000000
H    -3.120000000     2.593000000    -4.457000000
H    -2.760000000     3.806000000    -5.288000000
O     0.244000000    -1.996000000     2.471000000
H    -0.530000000    -2.332000000     2.924000000
H    -0.084000000    -1.711000000     1.618000000
O    -3.013000000    -1.281000000    -4.005000000
H    -3.286000000    -0.459000000    -3.597000000
H    -2.072000000    -1.178000000    -4.144000000
O     3.084000000    -1.527000000     3.749000000
H     3.483000000    -1.268000000     2.918000000
H     2.151000000    -1.349000000     3.632000000
O    -0.605000000     1.689000000    -2.293000000
H    -0.290000000     1.213000000    -1.525000000
H    -0.632000000     2.604000000    -2.013000000
O    -3.304000000    -5.615000000    -2.828000000
H    -3.241000000    -6.034000000    -3.687000000
H    -3.780000000    -4.801000000    -2.993000000
O    -6.273000000    -2.520000000     1.784000000
H    -5.833000000    -1.692000000     1.974000000
H    -6.974000000    -2.285000000     1.176000000
O    -3.171000000     1.188000000    -2.859000000
H    -3.644000000     0.987000000    -2.052000000
H    -2.313000000     1.493000000    -2.564000000
O     4.036000000     0.867000000    -1.604000000
H     4.976000000     0.885000000    -1.421000000
H     3.635000000     1.268000000    -0.833000000
O     4.820000000     5.568000000     2.375000000
H     5.371000000     5.705000000     1.604000000
H     3.925000000     5.668000000     2.050000000
O     0.370000000    -3.181000000    -3.479000000
H     0.141000000    -2.276000000    -3.689000000
H     1.319000000    -3.223000000    -3.602000000
O     4.819000000    -0.788000000     1.566000000
H     4.390000000     0.007000000     1.250000000
H     5.579000000    -0.472000000     2.055000000
O    -3.573000000     0.835000000     4.801000000
H    -4.058000000     1.451000000     5.349000000
H    -2.660000000     0.942000000     5.071000000
O    -6.423000000     1.551000000    -0.972000000
H    -6.510000000     1.129000000    -1.827000000
H    -5.489000000     1.743000000    -0.893000000
O    -1.830000000     5.791000000     0.519000000
H    -2.123000000     4.893000000     0.671000000
H    -2.041000000     6.253000000     1.331000000
O     0.075000000    -7.092000000    -0.609000000
H    -0.869000000    -7.008000000    -0.473000000
H     0.359000000    -6.215000000    -0.866000000
O     6.460000000     3.411000000     2.889000000
H     7.202000000     3.931000000     3.199000000
H     5.701000000     3.982000000     3.008000000
O     0.501000000    -5.797000000    -4.958000000
H     1.427000000    -6.002000000    -5.081000000
H     0.500000000    -4.976000000    -4.465000000
O     4.676000000    -1.876000000    -1.560000000
H     5.478000000    -2.252000000    -1.197000000
H     4.799000000    -0.930000000    -1.482000000
O     2.633000000     4.303000000     5.447000000
H     1.730000000     4.617000000     5.400000000
H     2.620000000     3.639000000     6.136000000
O    -4.384000000    -0.209000000     2.424000000
H    -3.618000000    -0.740000000     2.209000000
H    -4.096000000     0.344000000     3.151000000
O     5.341000000     0.625000000     5.820000000
H     4.871000000     0.073000000     6.445000000
H     4.673000000     0.897000000     5.191000000
O    -7.048000000    -1.486000000    -0.833000000
H    -7.274000000    -0.557000000    -0.797000000
H    -7.487000000    -1.809000000    -1.620000000
O     3.196000000     0.407000000    -4.089000000
H     2.286000000     0.645000000    -4.264000000
H     3.299000000     0.532000000    -3.145000000
O    -0.277000000     4.296000000    -1.441000000
H    -0.943000000     4.680000000    -0.870000000
H     0.548000000     4.440000000    -0.977000000
O     6.821000000     0.113000000    -1.169000000
H     7.112000000    -0.422000000    -0.431000000
H     7.295000000    -0.239000000    -1.922000000
O     5.514000000     2.607000000     0.245000000
H     5.655000000     3.122000000     1.040000000
H     4.766000000     2.047000000     0.452000000
O     3.812000000    -3.642000000     0.815000000
H     3.158000000    -3.833000000     0.142000000
H     4.142000000    -2.773000000     0.588000000
O    -1.256000000    -4.418000000    -1.578000000
H    -0.787000000    -3.965000000    -2.279000000
H    -1.968000000    -4.877000000    -2.024000000
O    -2.556000000    -3.877000000     0.987000000
H    -1.837000000    -3.988000000     0.365000000
H    -3.301000000    -3.611000000     0.447000000
O    -3.207000000    -5.336000000     3.420000000
H    -3.912000000    -4.797000000     3.778000000
H    -3.213000000    -5.148000000     2.482000000
O     3.491000000     4.081000000    -3.513000000
H     4.007000000     3.394000000    -3.091000000
H     3.183000000     4.627000000    -2.790000000
O    -3.342000000     3.980000000    -0.866000000
H    -4.295000000     4.071000000    -0.870000000
H    -3.015000000     4.879000000    -0.902000000
O     6.610000000     0.542000000     3.151000000
H     6.605000000     1.474000000     2.933000000
H     6.221000000     0.498000000     4.024000000
O    -7.193000000     1.002000000     2.350000000
H    -6.486000000     1.215000000     1.741000000
H    -7.830000000     0.523000000     1.818000000
O     6.579000000     3.751000000    -1.802000000
H     6.601000000     4.704000000    -1.716000000
H     6.091000000     3.452000000    -1.035000000
O     3.672000000     1.889000000     4.129000000
H     3.105000000     2.507000000     4.590000000
H     3.405000000     1.957000000     3.213000000
O    -4.536000000    -2.634000000    -0.598000000
H    -4.332000000    -2.551000000    -1.529000000
H    -5.489000000    -2.560000000    -0.554000000
O     3.120000000     5.491000000    -1.189000000
H     3.946000000     5.877000000    -0.898000000
H     2.655000000     5.279000000    -0.380000000
O     0.617000000     1.563000000    -4.774000000
H     0.728000000     2.342000000    -5.319000000
H     0.309000000     1.901000000    -3.933000000
O     0.274000000     2.685000000     4.303000000
H     0.821000000     2.782000000     3.523000000
H    -0.267000000     1.916000000     4.121000000
O    -0.799000000     0.170000000     4.828000000
H    -0.006000000     0.009000000     5.339000000
H    -0.813000000    -0.533000000     4.178000000
