158
-3011.29779
C     0.804000000    -0.424000000    -1.165000000
H     1.257000000    -0.948000000    -2.002000000
C    -0.529000000    -0.812000000    -0.896000000
H    -1.027000000    -1.515000000    -1.560000000
C    -1.177000000    -0.273000000     0.202000000
H    -2.245000000    -0.372000000     0.322000000
C    -0.542000000     0.600000000     1.050000000
H    -1.094000000     0.976000000     1.907000000
C     0.778000000     0.970000000     0.785000000
H     1.353000000     1.549000000     1.504000000
C     1.478000000     0.552000000    -0.371000000
C     2.909000000     0.996000000    -0.646000000
O     3.559000000     0.512000000    -1.537000000
O     3.384000000     1.788000000     0.134000000
O    -0.037000000    -5.747000000    -1.553000000
H     0.765000000    -5.244000000    -1.691000000
H    -0.444000000    -5.792000000    -2.418000000
O    -3.147000000    -4.189000000     1.708000000
H    -3.304000000    -3.497000000     2.349000000
H    -3.464000000    -3.826000000     0.881000000
O     2.150000000     4.258000000     0.294000000
H     2.674000000     4.750000000    -0.338000000
H     2.613000000     3.427000000     0.394000000
O     6.789000000     0.068000000     0.405000000
H     6.401000000     0.225000000    -0.456000000
H     7.482000000     0.724000000     0.479000000
O     2.537000000     3.286000000    -5.023000000
H     3.458000000     3.171000000    -4.789000000
H     2.154000000     3.740000000    -4.272000000
O     5.156000000     2.999000000    -4.271000000
H     5.386000000     3.020000000    -3.342000000
H     5.900000000     3.410000000    -4.712000000
O    -0.042000000     5.631000000     2.958000000
H    -0.600000000     4.937000000     2.606000000
H    -0.091000000     5.520000000     3.907000000
O    -1.772000000    -3.285000000    -5.040000000
H    -1.118000000    -3.984000000    -5.046000000
H    -1.310000000    -2.522000000    -5.386000000
O    -5.624000000     3.548000000     1.342000000
H    -5.968000000     2.657000000     1.284000000
H    -5.152000000     3.677000000     0.519000000
O     1.419000000    -2.099000000     1.190000000
H     1.072000000    -2.972000000     1.006000000
H     0.643000000    -1.545000000     1.274000000
O    -3.111000000    -2.162000000    -2.894000000
H    -2.401000000    -2.411000000    -3.486000000
H    -3.906000000    -2.262000000    -3.419000000
O    -0.618000000    -2.127000000     5.263000000
H     0.312000000    -2.049000000     5.479000000
H    -0.663000000    -2.876000000     4.670000000
O    -1.989000000     2.779000000    -1.516000000
H    -1.313000000     2.179000000    -1.200000000
H    -2.455000000     2.283000000    -2.189000000
O    -6.046000000    -4.454000000    -0.596000000
H    -6.951000000    -4.199000000    -0.776000000
H    -5.669000000    -3.698000000    -0.147000000
O    -2.950000000     0.803000000    -3.575000000
H    -3.037000000     1.248000000    -4.418000000
H    -3.691000000     0.198000000    -3.547000000
O     3.597000000    -2.614000000    -3.966000000
H     3.985000000    -2.612000000    -4.840000000
H     3.749000000    -1.729000000    -3.634000000
O     3.512000000    -1.957000000    -0.718000000
H     3.700000000    -1.018000000    -0.719000000
H     2.682000000    -2.033000000    -0.247000000
O    -2.713000000     3.386000000     3.123000000
H    -3.225000000     4.195000000     3.132000000
H    -2.391000000     3.317000000     2.225000000
O    -5.562000000    -0.244000000    -1.420000000
H    -5.277000000    -0.534000000    -2.286000000
H    -5.903000000     0.639000000    -1.564000000
O     6.360000000     3.587000000     1.794000000
H     5.710000000     2.884000000     1.791000000
H     7.140000000     3.190000000     2.181000000
O     3.874000000    -4.481000000    -1.123000000
H     4.509000000    -4.774000000    -1.777000000
H     3.817000000    -3.534000000    -1.251000000
O    -3.822000000    -1.959000000     3.176000000
H    -3.734000000    -1.021000000     3.006000000
H    -4.007000000    -2.016000000     4.113000000
O     5.360000000     3.362000000     4.604000000
H     4.535000000     2.971000000     4.316000000
H     5.631000000     3.915000000     3.871000000
O    -0.545000000     4.233000000     0.824000000
H    -0.851000000     4.561000000    -0.022000000
H     0.405000000     4.177000000     0.731000000
O    -2.975000000    -6.930000000     2.160000000
H    -3.430000000    -7.151000000     1.347000000
H    -2.680000000    -6.029000000     2.032000000
O     2.364000000     0.360000000     4.277000000
H     2.927000000     0.271000000     3.507000000
H     1.671000000     0.959000000     3.999000000
O    -6.451000000     0.833000000     1.315000000
H    -7.227000000     0.698000000     1.858000000
H    -6.570000000     0.237000000     0.575000000
O     2.745000000    -5.290000000    -4.053000000
H     2.627000000    -5.842000000    -3.280000000
H     2.877000000    -4.410000000    -3.700000000
O     0.908000000     3.653000000     5.943000000
H     0.700000000     3.256000000     5.097000000
H     0.174000000     4.243000000     6.117000000
O     2.199000000     0.059000000    -6.660000000
H     2.057000000     0.970000000    -6.916000000
H     2.730000000     0.113000000    -5.866000000
O     7.227000000    -2.582000000    -1.514000000
H     6.820000000    -2.894000000    -0.705000000
H     6.953000000    -1.668000000    -1.583000000
O     5.524000000     3.016000000    -0.983000000
H     6.224000000     2.511000000    -0.568000000
H     4.764000000     2.434000000    -0.961000000
O     0.545000000    -4.956000000     1.234000000
H     0.858000000    -5.816000000     1.516000000
H     0.036000000    -5.135000000     0.443000000
O    -2.640000000     2.416000000     5.708000000
H    -3.530000000     2.596000000     6.010000000
H    -2.602000000     2.800000000     4.832000000
O     2.888000000     3.587000000     2.908000000
H     2.749000000     3.625000000     1.961000000
H     2.006000000     3.530000000     3.277000000
O     3.751000000     0.343000000    -4.265000000
H     3.440000000     0.432000000    -3.364000000
H     4.042000000     1.222000000    -4.506000000
O    -0.394000000     1.430000000    -3.878000000
H     0.176000000     0.756000000    -3.507000000
H    -1.281000000     1.106000000    -3.720000000
O     3.894000000     5.739000000    -1.014000000
H     3.711000000     6.516000000    -0.486000000
H     4.561000000     5.265000000    -0.519000000
O    -4.822000000    -2.427000000     0.395000000
H    -4.459000000    -2.180000000     1.245000000
H    -4.782000000    -1.625000000    -0.126000000
O    -0.642000000    -4.327000000     3.517000000
H    -0.086000000    -4.613000000     2.792000000
H    -1.242000000    -3.694000000     3.123000000
O     6.214000000     0.243000000    -2.255000000
H     6.304000000     0.399000000    -3.195000000
H     5.269000000     0.252000000    -2.101000000
O    -4.195000000     0.683000000     3.127000000
H    -4.060000000     1.595000000     3.384000000
H    -4.957000000     0.707000000     2.548000000
O     4.468000000    -0.005000000     1.942000000
H     5.403000000    -0.055000000     1.745000000
H     4.135000000     0.671000000     1.351000000
O    -0.556000000     0.668000000     4.926000000
H    -1.371000000     1.113000000     5.154000000
H    -0.774000000    -0.264000000     4.958000000
O    -4.278000000    -4.708000000    -2.678000000
H    -3.816000000    -3.874000000    -2.598000000
H    -4.852000000    -4.738000000    -1.913000000
O     3.578000000    -2.663000000     2.389000000
H     4.292000000    -2.053000000     2.204000000
H     2.847000000    -2.344000000     1.859000000
O     0.208000000     2.759000000     3.646000000
H    -0.647000000     2.971000000     3.271000000
H     0.062000000     1.946000000     4.129000000
O    -8.028000000    -1.671000000    -1.640000000
H    -8.707000000    -1.175000000    -1.183000000
H    -7.228000000    -1.163000000    -1.503000000
