158
-3029.88163
C     0.105000000    -0.929000000    -1.197000000
H     0.095000000    -1.671000000    -1.992000000
C     0.473000000    -1.318000000     0.139000000
H     0.694000000    -2.348000000     0.410000000
C     0.302000000    -0.306000000     1.157000000
H     0.559000000    -0.605000000     2.217000000
C    -0.108000000     1.005000000     0.811000000
H    -0.088000000     1.773000000     1.581000000
C    -0.308000000     1.421000000    -0.501000000
H    -0.680000000     2.434000000    -0.626000000
C    -0.163000000     0.387000000    -1.501000000
C    -0.506000000     0.763000000    -2.888000000
O    -0.395000000    -0.048000000    -3.776000000
O    -0.925000000     1.901000000    -3.026000000
O     3.132000000    -1.293000000    -3.576000000
H     2.741000000    -0.465000000    -3.296000000
H     4.075000000    -1.149000000    -3.504000000
O     3.860000000     3.006000000     1.697000000
H     4.616000000     3.231000000     2.239000000
H     3.225000000     3.700000000     1.873000000
O     0.437000000    -2.263000000    -8.112000000
H    -0.056000000    -2.707000000    -7.421000000
H     0.849000000    -1.519000000    -7.673000000
O     1.559000000    -1.713000000     5.806000000
H     1.197000000    -2.489000000     5.378000000
H     1.796000000    -2.011000000     6.684000000
O     0.732000000    -2.194000000    -4.951000000
H     1.545000000    -2.230000000    -4.446000000
H     0.378000000    -1.323000000    -4.773000000
O    -0.091000000     0.733000000    -6.284000000
H    -0.342000000     0.367000000    -5.436000000
H     0.789000000     0.392000000    -6.442000000
O     3.978000000    -2.690000000     2.522000000
H     3.448000000    -3.271000000     3.068000000
H     3.849000000    -1.821000000     2.902000000
O    -3.810000000     1.618000000     3.755000000
H    -4.597000000     1.162000000     3.456000000
H    -3.191000000     0.917000000     3.958000000
O    -1.715000000     3.777000000    -6.249000000
H    -1.136000000     4.123000000    -5.569000000
H    -2.061000000     2.965000000    -5.878000000
O     3.149000000    -4.726000000    -1.992000000
H     3.769000000    -4.315000000    -1.389000000
H     2.933000000    -4.037000000    -2.620000000
O     2.125000000    -4.426000000     3.619000000
H     1.890000000    -5.190000000     3.093000000
H     1.286000000    -4.021000000     3.841000000
O    -0.133000000     2.510000000     5.807000000
H     0.424000000     2.324000000     5.051000000
H    -0.755000000     3.165000000     5.491000000
O    -2.561000000     6.194000000     1.648000000
H    -2.263000000     7.078000000     1.862000000
H    -1.970000000     5.903000000     0.954000000
O    -2.107000000    -0.533000000     4.028000000
H    -1.179000000    -0.306000000     3.965000000
H    -2.130000000    -1.484000000     3.922000000
O    -2.877000000    -0.726000000    -4.639000000
H    -2.059000000    -0.300000000    -4.382000000
H    -3.006000000    -1.411000000    -3.983000000
O    -0.244000000    -3.306000000     4.318000000
H    -0.646000000    -3.719000000     5.082000000
H    -0.974000000    -3.148000000     3.719000000
O     1.633000000     3.326000000    -3.740000000
H     0.767000000     2.974000000    -3.535000000
H     2.165000000     2.555000000    -3.937000000
O     0.130000000     6.750000000    -0.647000000
H     0.375000000     5.952000000    -0.178000000
H     0.715000000     6.772000000    -1.404000000
O    -2.844000000     1.117000000    -6.787000000
H    -3.045000000     0.672000000    -5.964000000
H    -1.918000000     0.931000000    -6.941000000
O     3.267000000     1.373000000    -2.722000000
H     3.399000000     2.037000000    -2.044000000
H     4.141000000     1.016000000    -2.880000000
O     2.163000000     5.880000000     2.259000000
H     1.797000000     5.773000000     1.381000000
H     2.592000000     6.735000000     2.238000000
O    -4.953000000     4.228000000    -4.012000000
H    -4.618000000     3.385000000    -3.706000000
H    -5.569000000     4.502000000    -3.332000000
O     4.001000000     3.008000000    -0.912000000
H     3.785000000     3.063000000     0.019000000
H     4.453000000     3.830000000    -1.102000000
O     1.877000000     4.135000000    -6.886000000
H     1.232000000     4.834000000    -6.780000000
H     1.704000000     3.536000000    -6.160000000
O    -2.781000000    -0.887000000     0.631000000
H    -2.682000000    -1.212000000     1.525000000
H    -1.896000000    -0.634000000     0.368000000
O    -5.634000000    -0.307000000    -5.112000000
H    -5.775000000    -1.035000000    -5.718000000
H    -4.720000000    -0.395000000    -4.840000000
O    -0.587000000     2.276000000    -8.540000000
H    -0.421000000     2.187000000    -7.601000000
H    -0.746000000     3.211000000    -8.668000000
O     2.469000000    -0.161000000    -6.856000000
H     2.806000000     0.470000000    -7.493000000
H     3.200000000    -0.761000000    -6.705000000
O     2.498000000     5.564000000    -2.114000000
H     2.172000000     5.065000000    -2.863000000
H     3.408000000     5.761000000    -2.335000000
O    -1.859000000     4.954000000    -3.526000000
H    -2.794000000     5.161000000    -3.546000000
H    -1.821000000     4.044000000    -3.232000000
O     0.218000000    -5.107000000    -1.171000000
H     1.156000000    -5.101000000    -1.363000000
H    -0.194000000    -5.370000000    -1.994000000
O     3.937000000     0.240000000     2.104000000
H     3.771000000     1.183000000     2.101000000
H     3.907000000    -0.011000000     1.181000000
O    -2.420000000    -2.913000000     2.432000000
H    -2.334000000    -3.653000000     1.831000000
H    -3.364000000    -2.812000000     2.554000000
O    -1.822000000     3.794000000     3.261000000
H    -2.445000000     3.068000000     3.271000000
H    -2.352000000     4.562000000     3.049000000
O     1.347000000     4.289000000    -0.042000000
H     1.856000000     4.785000000    -0.683000000
H     1.460000000     3.375000000    -0.301000000
O    -4.740000000     2.804000000     0.142000000
H    -4.038000000     2.393000000    -0.362000000
H    -5.222000000     2.070000000     0.524000000
O    -1.749000000     0.514000000     6.839000000
H    -0.906000000     0.909000000     6.616000000
H    -2.014000000     0.051000000     6.044000000
O    -3.468000000     2.088000000    -3.412000000
H    -2.539000000     2.184000000    -3.202000000
H    -3.720000000     1.257000000    -3.009000000
O    -1.948000000    -5.169000000     0.961000000
H    -1.235000000    -5.095000000     0.327000000
H    -2.320000000    -6.037000000     0.802000000
O     1.589000000     0.531000000     4.150000000
H     1.551000000    -0.257000000     4.693000000
H     2.249000000     0.332000000     3.486000000
O     1.604000000    -6.801000000     1.055000000
H     2.444000000    -6.742000000     0.601000000
H     0.952000000    -6.612000000     0.380000000
O    -2.673000000    -3.014000000    -6.268000000
H    -3.557000000    -3.377000000    -6.215000000
H    -2.701000000    -2.232000000    -5.716000000
O     4.418000000    -3.162000000    -0.217000000
H     4.633000000    -2.482000000    -0.857000000
H     3.796000000    -2.742000000     0.378000000
O     3.053000000    -0.281000000    -0.555000000
H     2.103000000    -0.331000000    -0.448000000
H     3.177000000     0.161000000    -1.395000000
O     0.048000000     6.325000000    -5.872000000
H    -0.135000000     7.258000000    -5.763000000
H    -0.085000000     5.952000000    -5.000000000
O    -4.053000000     0.141000000    -1.517000000
H    -3.830000000    -0.253000000    -0.674000000
H    -4.932000000    -0.185000000    -1.709000000
O     0.891000000     3.490000000     3.373000000
H    -0.050000000     3.650000000     3.431000000
H     1.204000000     4.127000000     2.731000000
O     5.385000000     1.303000000     5.169000000
H     4.470000000     1.404000000     4.907000000
H     5.770000000     0.753000000     4.487000000
