158
-3063.76754
C    -0.042000000    -0.019000000    -1.518000000
H     0.054000000    -0.065000000    -2.600000000
C     1.053000000    -0.407000000    -0.752000000
H     1.985000000    -0.793000000    -1.157000000
C     1.013000000    -0.373000000     0.630000000
H     1.876000000    -0.667000000     1.291000000
C    -0.144000000     0.091000000     1.208000000
H    -0.251000000     0.104000000     2.290000000
C    -1.239000000     0.456000000     0.462000000
H    -2.155000000     0.721000000     0.983000000
C    -1.255000000     0.436000000    -0.942000000
C    -2.471000000     0.798000000    -1.745000000
O    -2.396000000     0.767000000    -2.981000000
O    -3.394000000     1.193000000    -1.057000000
O     0.280000000    -3.246000000    -2.534000000
H     0.160000000    -3.415000000    -1.599000000
H     0.992000000    -2.607000000    -2.572000000
O    -0.955000000    -1.622000000     6.296000000
H    -1.284000000    -2.359000000     5.781000000
H    -0.077000000    -1.461000000     5.950000000
O    -2.164000000    -2.409000000    -3.480000000
H    -1.322000000    -2.700000000    -3.128000000
H    -2.128000000    -1.454000000    -3.429000000
O    -3.708000000     1.300000000    -5.348000000
H    -3.310000000     1.057000000    -4.513000000
H    -3.262000000     0.753000000    -5.995000000
O     4.061000000     0.314000000    -3.149000000
H     4.965000000     0.577000000    -3.325000000
H     3.591000000     0.519000000    -3.957000000
O     1.882000000    -3.436000000     5.336000000
H     1.650000000    -3.749000000     6.210000000
H     2.210000000    -2.548000000     5.479000000
O    -5.016000000     2.292000000     3.111000000
H    -5.525000000     2.089000000     2.326000000
H    -4.851000000     1.441000000     3.516000000
O     5.672000000    -1.203000000     0.272000000
H     5.594000000    -1.728000000     1.069000000
H     6.616000000    -1.110000000     0.139000000
O     0.061000000    -3.455000000     0.181000000
H     0.613000000    -2.674000000     0.146000000
H     0.038000000    -3.691000000     1.109000000
O    -0.654000000     3.397000000     3.934000000
H    -1.092000000     2.581000000     4.178000000
H    -1.337000000     4.064000000     4.000000000
O    -3.788000000     5.407000000     1.202000000
H    -3.427000000     6.259000000     0.958000000
H    -4.288000000     5.131000000     0.434000000
O    -3.729000000    -0.215000000     4.185000000
H    -3.509000000    -0.528000000     3.308000000
H    -4.576000000    -0.618000000     4.377000000
O    -4.909000000    -2.951000000    -2.717000000
H    -4.011000000    -2.959000000    -3.049000000
H    -5.112000000    -3.872000000    -2.552000000
O    -2.700000000    -3.163000000     4.697000000
H    -3.428000000    -2.725000000     5.139000000
H    -2.850000000    -2.998000000     3.766000000
O     0.324000000     3.403000000    -1.771000000
H    -0.351000000     2.911000000    -1.303000000
H     0.521000000     2.867000000    -2.539000000
O     4.648000000    -3.312000000    -2.135000000
H     5.056000000    -2.829000000    -1.417000000
H     4.040000000    -2.686000000    -2.529000000
O    -8.278000000     0.633000000    -1.974000000
H    -8.389000000     1.518000000    -1.627000000
H    -7.333000000     0.541000000    -2.095000000
O     0.915000000     2.239000000    -4.091000000
H     1.756000000     1.829000000    -4.291000000
H     0.810000000     2.912000000    -4.764000000
O     2.951000000     1.010000000    -5.448000000
H     2.935000000     1.311000000    -6.357000000
H     2.712000000     0.084000000    -5.499000000
O    -3.316000000     4.248000000    -2.933000000
H    -3.250000000     4.282000000    -3.887000000
H    -3.213000000     3.320000000    -2.719000000
O     0.545000000     4.652000000     1.231000000
H     1.232000000     3.986000000     1.249000000
H    -0.271000000     4.153000000     1.188000000
O     3.690000000     2.459000000     2.801000000
H     2.821000000     2.171000000     2.522000000
H     3.522000000     3.203000000     3.378000000
O    -4.547000000    -1.223000000    -0.639000000
H    -4.204000000    -0.388000000    -0.957000000
H    -4.573000000    -1.782000000    -1.415000000
O    -6.140000000    -0.784000000    -3.852000000
H    -5.665000000    -1.596000000    -3.674000000
H    -7.060000000    -1.012000000    -3.721000000
O     1.544000000    -1.224000000    -5.908000000
H     0.772000000    -0.965000000    -5.404000000
H     1.196000000    -1.484000000    -6.761000000
O    -0.668000000     0.114000000    -4.889000000
H    -0.028000000     0.820000000    -4.980000000
H    -1.292000000     0.440000000    -4.241000000
O     6.158000000    -2.527000000     2.665000000
H     6.029000000    -3.028000000     3.470000000
H     6.862000000    -1.914000000     2.873000000
O    -2.126000000     3.429000000     0.340000000
H    -2.815000000     2.794000000     0.144000000
H    -2.592000000     4.189000000     0.688000000
O    -2.821000000    -4.319000000     0.884000000
H    -1.952000000    -3.945000000     0.735000000
H    -2.795000000    -5.168000000     0.443000000
O    -1.728000000    -3.366000000    -5.969000000
H    -1.686000000    -3.111000000    -5.047000000
H    -2.665000000    -3.424000000    -6.158000000
O     1.837000000     2.388000000     0.833000000
H     1.061000000     1.834000000     0.748000000
H     2.521000000     1.916000000     0.359000000
O    -3.824000000    -1.511000000     2.048000000
H    -4.277000000    -1.323000000     1.226000000
H    -3.185000000    -2.186000000     1.820000000
O    -3.733000000     4.411000000     3.811000000
H    -4.216000000     3.614000000     3.593000000
H    -3.725000000     4.916000000     2.998000000
O    -1.431000000     5.695000000    -1.794000000
H    -2.119000000     5.161000000    -2.190000000
H    -0.809000000     5.060000000    -1.438000000
O     5.309000000     2.604000000     0.644000000
H     4.822000000     2.542000000     1.466000000
H     4.941000000     1.912000000     0.094000000
O    -5.468000000     4.587000000    -0.599000000
H    -5.287000000     3.888000000    -1.227000000
H    -6.422000000     4.665000000    -0.594000000
O    -2.879000000     3.906000000    -5.488000000
H    -3.213000000     3.039000000    -5.717000000
H    -1.952000000     3.876000000    -5.725000000
O    -1.346000000     1.250000000     5.188000000
H    -0.833000000     0.450000000     5.304000000
H    -2.222000000     0.940000000     4.955000000
O     1.748000000    -3.727000000     2.668000000
H     1.599000000    -3.312000000     3.517000000
H     1.553000000    -4.652000000     2.817000000
O     1.700000000     3.942000000     4.691000000
H     0.861000000     3.677000000     4.314000000
H     1.828000000     3.348000000     5.431000000
O     2.420000000    -2.061000000    -3.515000000
H     3.098000000    -1.399000000    -3.381000000
H     2.219000000    -2.013000000    -4.449000000
O    -7.174000000    -1.565000000     0.233000000
H    -6.532000000    -1.758000000    -0.450000000
H    -7.244000000    -2.378000000     0.733000000
O     4.199000000    -3.791000000     0.957000000
H     4.759000000    -3.680000000     1.725000000
H     3.307000000    -3.771000000     1.305000000
O     3.930000000     0.708000000    -0.319000000
H     3.983000000     0.448000000    -1.239000000
H     4.277000000    -0.043000000     0.162000000
O    -5.835000000     2.072000000    -1.873000000
H    -5.102000000     1.487000000    -1.680000000
H    -5.846000000     2.136000000    -2.828000000
O     3.281000000    -1.144000000     5.980000000
H     3.671000000    -1.350000000     6.830000000
H     3.849000000    -0.467000000     5.614000000
O    -6.866000000     1.657000000     1.145000000
H    -7.571000000     1.013000000     1.213000000
H    -6.818000000     1.861000000     0.211000000
O     4.717000000     1.094000000     4.917000000
H     4.190000000     1.534000000     4.251000000
H     5.452000000     0.719000000     4.432000000
