158
-3046.23901
C    -0.564000000     1.282000000    -0.628000000
H    -0.842000000     2.181000000    -1.172000000
C    -0.041000000     0.205000000    -1.291000000
H    -0.005000000     0.250000000    -2.376000000
C     0.476000000    -0.917000000    -0.641000000
H     0.807000000    -1.743000000    -1.186000000
C     0.431000000    -0.982000000     0.770000000
H     0.623000000    -1.936000000     1.254000000
C    -0.012000000     0.104000000     1.476000000
H    -0.157000000     0.030000000     2.551000000
C    -0.626000000     1.258000000     0.783000000
C    -1.205000000     2.325000000     1.661000000
O    -1.872000000     3.200000000     1.176000000
O    -0.913000000     2.314000000     2.835000000
O    -2.270000000    -5.130000000     0.064000000
H    -3.167000000    -5.411000000     0.247000000
H    -1.828000000    -5.923000000    -0.239000000
O     0.404000000     0.813000000    -5.233000000
H     1.237000000     0.478000000    -4.899000000
H     0.233000000     0.291000000    -6.017000000
O     0.751000000    -1.493000000     5.329000000
H     0.151000000    -2.160000000     4.995000000
H     1.028000000    -1.826000000     6.182000000
O    -1.216000000     5.585000000     2.969000000
H    -1.750000000     6.033000000     2.312000000
H    -1.296000000     4.657000000     2.749000000
O     5.006000000    -1.093000000    -1.043000000
H     4.319000000    -1.051000000    -0.378000000
H     5.801000000    -0.822000000    -0.584000000
O    -4.422000000     4.391000000     1.879000000
H    -3.593000000     3.919000000     1.796000000
H    -5.092000000     3.729000000     1.711000000
O     1.942000000     1.567000000     7.300000000
H     1.537000000     1.368000000     6.456000000
H     1.770000000     2.500000000     7.434000000
O    -3.196000000    -3.104000000    -2.032000000
H    -3.673000000    -3.918000000    -2.193000000
H    -2.275000000    -3.362000000    -2.028000000
O    -5.332000000     1.283000000     3.954000000
H    -4.563000000     1.437000000     4.503000000
H    -4.973000000     1.106000000     3.084000000
O    -4.014000000     0.917000000     1.651000000
H    -3.551000000     0.932000000     0.814000000
H    -4.816000000     0.426000000     1.472000000
O    -2.305000000     4.792000000     5.323000000
H    -1.906000000     4.958000000     4.469000000
H    -2.496000000     3.854000000     5.319000000
O    -3.803000000     3.377000000    -1.082000000
H    -3.272000000     3.521000000    -0.298000000
H    -4.706000000     3.449000000    -0.775000000
O     1.935000000    -4.421000000    -0.190000000
H     2.515000000    -3.956000000    -0.793000000
H     2.412000000    -4.433000000     0.640000000
O    -2.681000000    -3.041000000     1.632000000
H    -2.756000000    -3.695000000     0.937000000
H    -3.118000000    -2.266000000     1.278000000
O    -2.993000000     3.920000000    -4.846000000
H    -2.156000000     4.194000000    -5.222000000
H    -3.068000000     4.425000000    -4.036000000
O     0.495000000     1.511000000     4.802000000
H     0.212000000     0.600000000     4.876000000
H     0.138000000     1.806000000     3.964000000
O     2.550000000    -0.316000000    -4.579000000
H     2.376000000    -1.213000000    -4.291000000
H     3.170000000    -0.413000000    -5.302000000
O    -5.855000000     5.510000000    -0.031000000
H    -5.284000000     5.481000000     0.736000000
H    -5.255000000     5.534000000    -0.776000000
O     4.491000000    -3.940000000     1.156000000
H     4.354000000    -3.089000000     1.574000000
H     5.397000000    -4.167000000     1.365000000
O     3.583000000    -4.103000000    -2.621000000
H     4.306000000    -3.573000000    -2.956000000
H     2.796000000    -3.685000000    -2.972000000
O    -0.972000000    -3.127000000    -5.318000000
H    -0.855000000    -2.819000000    -6.217000000
H    -1.420000000    -2.406000000    -4.875000000
O    -2.869000000     1.896000000     4.840000000
H    -2.703000000     1.057000000     5.269000000
H    -2.248000000     1.920000000     4.112000000
O    -3.156000000    -0.778000000    -0.352000000
H    -3.543000000    -1.576000000    -0.711000000
H    -2.259000000    -0.775000000    -0.686000000
O    -0.919000000    -3.392000000     3.785000000
H    -1.412000000    -3.170000000     2.995000000
H    -0.438000000    -4.186000000     3.552000000
O     0.186000000    -5.886000000     3.093000000
H    -0.262000000    -6.493000000     3.681000000
H    -0.317000000    -5.926000000     2.279000000
O    -5.742000000     0.703000000    -1.100000000
H    -4.877000000     0.366000000    -0.864000000
H    -6.247000000    -0.076000000    -1.332000000
O     4.205000000     2.042000000     2.932000000
H     3.527000000     2.218000000     2.279000000
H     3.839000000     1.344000000     3.475000000
O     3.140000000    -0.152000000     4.509000000
H     2.856000000    -0.868000000     5.077000000
H     2.445000000     0.501000000     4.581000000
O    -0.677000000    -7.235000000    -0.569000000
H    -0.179000000    -7.136000000    -1.380000000
H    -0.062000000    -7.639000000     0.042000000
O     5.847000000    -2.575000000    -3.308000000
H     5.691000000    -1.986000000    -2.570000000
H     6.750000000    -2.397000000    -3.570000000
O    -3.420000000     1.580000000    -3.165000000
H    -3.584000000     1.889000000    -2.274000000
H    -3.535000000     2.357000000    -3.713000000
O    -1.281000000    -5.768000000    -4.869000000
H    -1.181000000    -4.817000000    -4.827000000
H    -0.403000000    -6.092000000    -5.071000000
O     1.091000000     3.619000000    -5.623000000
H     0.425000000     4.273000000    -5.835000000
H     0.761000000     2.808000000    -6.009000000
O     2.368000000     2.120000000     1.215000000
H     2.005000000     1.284000000     0.922000000
H     1.909000000     2.777000000     0.692000000
O    -0.389000000    -3.986000000    -2.056000000
H    -0.099000000    -4.850000000    -2.348000000
H    -0.660000000    -4.120000000    -1.147000000
O     1.225000000    -2.609000000    -3.736000000
H     0.655000000    -3.107000000    -3.151000000
H     0.685000000    -2.438000000    -4.508000000
O    -5.293000000     5.527000000     4.248000000
H    -4.712000000     5.649000000     5.000000000
H    -4.714000000     5.233000000     3.544000000
O     4.225000000    -1.578000000     2.476000000
H     4.909000000    -0.942000000     2.264000000
H     3.734000000    -1.173000000     3.191000000
O     1.876000000     3.426000000    -3.065000000
H     1.726000000     2.484000000    -2.977000000
H     1.798000000     3.594000000    -4.004000000
O     1.714000000     4.084000000    -0.519000000
H     1.766000000     3.848000000    -1.445000000
H     0.841000000     4.463000000    -0.418000000
O    -0.357000000     7.132000000    -2.621000000
H    -0.122000000     6.673000000    -3.428000000
H    -0.922000000     6.517000000    -2.152000000
O     5.164000000     0.503000000    -3.465000000
H     5.217000000    -0.246000000    -2.871000000
H     4.246000000     0.532000000    -3.732000000
O    -1.105000000     4.932000000    -0.614000000
H    -1.443000000     5.785000000    -0.341000000
H    -1.261000000     4.361000000     0.138000000
O     1.265000000    -6.230000000    -2.232000000
H     1.536000000    -5.783000000    -1.430000000
H     2.072000000    -6.324000000    -2.739000000
O    -1.751000000    -0.639000000    -4.195000000
H    -0.956000000    -0.174000000    -4.453000000
H    -2.209000000    -0.029000000    -3.617000000
O     2.592000000    -4.882000000     3.775000000
H     1.761000000    -5.183000000     3.408000000
H     3.258000000    -5.246000000     3.191000000
O    -2.465000000     7.232000000     0.789000000
H    -2.070000000     7.927000000     0.262000000
H    -3.190000000     7.660000000     1.244000000
O     1.538000000     4.390000000     4.278000000
H     0.826000000     4.858000000     3.840000000
H     1.313000000     3.465000000     4.178000000
