158
-3034.67965
C    -0.213000000     0.490000000    -1.400000000
H    -0.427000000     0.812000000    -2.416000000
C     0.175000000    -0.812000000    -1.036000000
H     0.347000000    -1.580000000    -1.786000000
C     0.413000000    -1.104000000     0.303000000
H     0.784000000    -2.165000000     0.613000000
C     0.190000000    -0.167000000     1.312000000
H     0.407000000    -0.372000000     2.357000000
C    -0.324000000     1.060000000     0.919000000
H    -0.648000000     1.783000000     1.663000000
C    -0.568000000     1.412000000    -0.407000000
C    -1.197000000     2.739000000    -0.745000000
O    -1.077000000     3.200000000    -1.898000000
O    -1.947000000     3.183000000     0.100000000
O    -5.661000000     4.654000000     2.818000000
H    -5.740000000     3.729000000     2.585000000
H    -4.873000000     4.949000000     2.362000000
O     0.860000000    -3.319000000    -3.755000000
H     1.541000000    -2.896000000    -3.232000000
H     0.927000000    -4.247000000    -3.530000000
O    -1.264000000    -2.617000000     4.031000000
H    -2.001000000    -2.152000000     3.636000000
H    -1.235000000    -3.456000000     3.571000000
O    -3.430000000     4.743000000    -2.267000000
H    -3.014000000     5.554000000    -2.558000000
H    -2.785000000     4.336000000    -1.689000000
O     3.147000000    -1.583000000    -2.653000000
H     3.833000000    -0.938000000    -2.485000000
H     3.515000000    -2.411000000    -2.342000000
O     0.952000000     7.866000000    -0.661000000
H     0.737000000     6.962000000    -0.893000000
H     1.517000000     8.168000000    -1.372000000
O    -2.026000000     2.219000000    -4.181000000
H    -1.634000000     2.568000000    -3.380000000
H    -2.646000000     1.558000000    -3.875000000
O     2.920000000    -5.406000000     1.510000000
H     2.014000000    -5.708000000     1.440000000
H     2.905000000    -4.767000000     2.222000000
O    -3.137000000     0.237000000    -2.755000000
H    -3.287000000     0.369000000    -1.819000000
H    -2.601000000    -0.554000000    -2.803000000
O     0.237000000    -5.840000000    -2.415000000
H    -0.059000000    -5.917000000    -1.508000000
H     1.150000000    -6.127000000    -2.394000000
O    -3.785000000     2.389000000     3.599000000
H    -2.934000000     2.579000000     3.995000000
H    -3.574000000     1.913000000     2.796000000
O    -1.267000000     3.815000000     3.975000000
H    -0.573000000     3.820000000     3.316000000
H    -1.815000000     4.567000000     3.752000000
O     3.791000000     2.959000000    -4.246000000
H     4.209000000     2.959000000    -5.107000000
H     2.895000000     2.668000000    -4.414000000
O    -0.867000000    -5.176000000     2.872000000
H    -1.492000000    -5.450000000     2.200000000
H    -0.117000000    -5.757000000     2.753000000
O    -5.608000000     5.781000000    -1.046000000
H    -4.957000000     5.242000000    -1.495000000
H    -5.310000000     5.809000000    -0.137000000
O     0.700000000    -6.852000000     1.626000000
H     0.017000000    -6.696000000     0.973000000
H     0.980000000    -7.754000000     1.468000000
O     1.222000000     2.022000000    -4.451000000
H     1.507000000     1.115000000    -4.556000000
H     0.266000000     1.972000000    -4.427000000
O     4.827000000    -3.727000000    -2.626000000
H     5.551000000    -3.186000000    -2.310000000
H     4.966000000    -4.578000000    -2.211000000
O     1.810000000    -0.586000000    -4.872000000
H     2.225000000    -1.178000000    -4.244000000
H     2.451000000    -0.496000000    -5.576000000
O    -4.239000000     1.923000000     0.838000000
H    -4.802000000     2.494000000     0.315000000
H    -3.352000000     2.241000000     0.667000000
O     2.858000000    -6.308000000    -2.202000000
H     3.387000000    -6.077000000    -1.438000000
H     3.498000000    -6.489000000    -2.890000000
O    -3.022000000    -3.005000000     0.074000000
H    -3.386000000    -3.874000000    -0.096000000
H    -2.344000000    -2.895000000    -0.592000000
O    -2.617000000    -1.049000000     1.901000000
H    -1.986000000    -0.512000000     1.422000000
H    -2.839000000    -1.756000000     1.295000000
O    -1.769000000    -2.400000000    -3.146000000
H    -2.256000000    -3.136000000    -3.514000000
H    -0.850000000    -2.623000000    -3.292000000
O     1.791000000     1.332000000     5.882000000
H     1.173000000     0.866000000     5.318000000
H     1.280000000     2.052000000     6.252000000
O     2.736000000     2.530000000     2.044000000
H     3.110000000     2.436000000     2.920000000
H     2.646000000     1.632000000     1.724000000
O     0.751000000     4.248000000     1.871000000
H     1.459000000     3.605000000     1.833000000
H     0.685000000     4.584000000     0.977000000
O     2.493000000    -3.275000000     3.476000000
H     2.394000000    -3.599000000     4.371000000
H     2.145000000    -2.384000000     3.503000000
O    -5.226000000     4.365000000    -4.375000000
H    -4.760000000     4.108000000    -5.170000000
H    -4.536000000     4.500000000    -3.725000000
O     4.143000000     1.740000000     4.490000000
H     4.482000000     2.598000000     4.749000000
H     3.368000000     1.614000000     5.037000000
O     4.927000000     0.640000000    -1.881000000
H     5.231000000     1.546000000    -1.818000000
H     4.625000000     0.426000000    -0.998000000
O    -3.059000000     1.308000000    -6.941000000
H    -2.427000000     1.136000000    -6.243000000
H    -2.637000000     1.968000000    -7.490000000
O    -1.291000000    -6.507000000    -0.318000000
H    -1.543000000    -7.222000000    -0.903000000
H    -2.025000000    -6.427000000     0.291000000
O    -5.655000000     0.371000000     2.507000000
H    -5.045000000     0.771000000     1.887000000
H    -6.393000000     0.979000000     2.542000000
O     0.446000000     3.881000000    -6.396000000
H    -0.069000000     4.643000000    -6.130000000
H     0.949000000     3.648000000    -5.616000000
O     3.216000000     0.223000000     0.083000000
H     2.646000000    -0.543000000     0.023000000
H     2.965000000     0.769000000    -0.662000000
O    -0.724000000    -1.102000000    -6.099000000
H    -0.035000000    -0.929000000    -5.457000000
H    -0.540000000    -0.496000000    -6.817000000
O     5.815000000    -3.749000000     4.069000000
H     5.721000000    -2.807000000     4.215000000
H     5.549000000    -3.878000000     3.159000000
O     2.376000000     2.252000000    -1.824000000
H     2.159000000     2.295000000    -2.756000000
H     2.902000000     3.035000000    -1.664000000
O     4.960000000    -0.851000000     3.206000000
H     4.847000000    -0.029000000     3.684000000
H     4.069000000    -1.172000000     3.068000000
O     5.443000000    -4.353000000     1.458000000
H     5.888000000    -4.533000000     0.630000000
H     4.558000000    -4.695000000     1.334000000
O    -2.692000000     4.275000000    -5.908000000
H    -1.972000000     4.905000000    -5.933000000
H    -2.384000000     3.582000000    -5.324000000
O     3.620000000     4.147000000    -0.300000000
H     3.152000000     3.694000000     0.401000000
H     3.621000000     5.066000000    -0.032000000
O    -0.683000000     6.222000000    -5.347000000
H    -0.941000000     7.039000000    -5.774000000
H    -0.715000000     6.421000000    -4.411000000
O     0.397000000     5.512000000    -1.887000000
H     0.916000000     5.546000000    -2.690000000
H    -0.024000000     4.653000000    -1.911000000
O     1.086000000    -1.493000000     5.194000000
H     0.901000000    -1.503000000     6.133000000
H     0.254000000    -1.726000000     4.783000000
O    -2.127000000     7.148000000    -2.708000000
H    -1.786000000     7.919000000    -3.161000000
H    -1.727000000     7.184000000    -1.839000000
O    -3.427000000     4.782000000     1.506000000
H    -3.047000000     4.125000000     0.923000000
H    -2.772000000     5.480000000     1.539000000
