158
-3008.13520
C     0.807000000     1.104000000    -0.703000000
H     1.344000000     1.860000000    -1.270000000
C     0.433000000    -0.127000000    -1.295000000
H     0.714000000    -0.359000000    -2.320000000
C    -0.269000000    -1.055000000    -0.536000000
H    -0.527000000    -1.949000000    -1.048000000
C    -0.616000000    -0.827000000     0.796000000
H    -1.186000000    -1.550000000     1.374000000
C    -0.172000000     0.383000000     1.349000000
H    -0.413000000     0.662000000     2.372000000
C     0.491000000     1.334000000     0.650000000
C     0.755000000     2.641000000     1.397000000
O     1.591000000     3.403000000     1.108000000
O     0.095000000     2.935000000     2.361000000
O    -1.990000000    -5.084000000     1.091000000
H    -2.593000000    -5.699000000     0.672000000
H    -1.196000000    -5.128000000     0.559000000
O     2.439000000     8.510000000     1.402000000
H     3.281000000     8.320000000     0.989000000
H     2.115000000     7.657000000     1.690000000
O     1.684000000     6.074000000     2.391000000
H     0.861000000     6.207000000     2.862000000
H     1.533000000     5.293000000     1.859000000
O    -3.504000000    -2.562000000    -3.131000000
H    -4.039000000    -2.892000000    -2.409000000
H    -3.678000000    -3.165000000    -3.854000000
O     3.710000000     3.189000000     2.719000000
H     2.849000000     3.481000000     2.421000000
H     3.811000000     2.315000000     2.340000000
O     6.013000000     1.068000000    -1.405000000
H     5.700000000     0.223000000    -1.728000000
H     5.497000000     1.714000000    -1.887000000
O    -4.315000000     1.043000000     1.923000000
H    -3.781000000     1.411000000     2.626000000
H    -3.841000000     1.263000000     1.121000000
O    -1.725000000     1.834000000     6.262000000
H    -1.269000000     2.654000000     6.453000000
H    -2.248000000     1.664000000     7.045000000
O    -2.484000000     1.369000000    -0.427000000
H    -1.784000000     0.752000000    -0.214000000
H    -2.946000000     0.962000000    -1.160000000
O     0.890000000     4.564000000     4.810000000
H     0.378000000     4.206000000     4.085000000
H     1.552000000     3.896000000     4.989000000
O    -3.745000000     3.741000000    -0.400000000
H    -2.927000000     4.160000000    -0.133000000
H    -3.488000000     2.856000000    -0.658000000
O    -6.471000000    -1.408000000    -1.496000000
H    -6.225000000    -2.306000000    -1.274000000
H    -6.260000000    -0.901000000    -0.713000000
O     1.650000000    -3.448000000    -2.474000000
H     0.852000000    -3.801000000    -2.081000000
H     1.645000000    -3.782000000    -3.370000000
O    -0.871000000    -4.553000000    -1.912000000
H    -1.304000000    -3.814000000    -2.338000000
H    -1.165000000    -5.319000000    -2.405000000
O    -5.063000000    -4.016000000    -1.214000000
H    -4.630000000    -4.682000000    -0.679000000
H    -5.606000000    -4.515000000    -1.823000000
O     3.433000000    -5.846000000    -0.046000000
H     3.427000000    -6.254000000     0.820000000
H     3.779000000    -6.523000000    -0.627000000
O     2.033000000     1.828000000     4.625000000
H     2.560000000     1.056000000     4.831000000
H     1.606000000     1.613000000     3.796000000
O     1.043000000    -1.232000000    -4.747000000
H     1.412000000    -1.765000000    -4.043000000
H     0.577000000    -1.858000000    -5.302000000
O     1.894000000    -4.340000000     2.405000000
H     2.348000000    -3.666000000     1.899000000
H     2.595000000    -4.835000000     2.828000000
O     0.428000000     4.996000000    -3.536000000
H    -0.268000000     4.349000000    -3.422000000
H     1.029000000     4.833000000    -2.809000000
O     0.653000000    -6.918000000     0.130000000
H     1.536000000    -7.286000000     0.154000000
H     0.788000000    -5.978000000     0.010000000
O    -3.175000000     0.106000000    -2.841000000
H    -3.465000000     0.604000000    -3.605000000
H    -3.196000000    -0.807000000    -3.128000000
O    -4.549000000     4.732000000     4.115000000
H    -4.087000000     3.910000000     3.949000000
H    -4.245000000     5.322000000     3.425000000
O    -2.473000000     2.426000000     3.372000000
H    -2.123000000     2.355000000     4.260000000
H    -1.698000000     2.469000000     2.812000000
O     5.063000000     3.442000000     0.222000000
H     4.303000000     2.866000000     0.303000000
H     5.256000000     3.714000000     1.119000000
O    -0.994000000     6.882000000     3.081000000
H    -1.399000000     6.976000000     3.944000000
H    -1.209000000     7.697000000     2.626000000
O     4.065000000     2.733000000    -2.818000000
H     3.635000000     2.023000000    -3.295000000
H     4.168000000     3.429000000    -3.467000000
O     2.972000000    -1.732000000     0.109000000
H     2.194000000    -1.390000000    -0.329000000
H     3.326000000    -2.379000000    -0.501000000
O     2.204000000    -1.167000000     4.824000000
H     2.521000000    -1.588000000     5.623000000
H     1.251000000    -1.158000000     4.919000000
O     4.356000000     5.839000000     3.754000000
H     4.409000000     4.890000000     3.870000000
H     3.602000000     5.967000000     3.178000000
O     5.389000000    -1.444000000    -2.960000000
H     4.972000000    -2.299000000    -3.070000000
H     6.315000000    -1.604000000    -3.141000000
O     5.458000000     6.044000000    -1.010000000
H     4.611000000     6.296000000    -1.379000000
H     5.332000000     5.141000000    -0.717000000
O    -3.941000000    -6.405000000    -0.137000000
H    -3.711000000    -7.187000000    -0.639000000
H    -4.843000000    -6.557000000     0.145000000
O    -0.988000000     0.799000000    -5.518000000
H    -0.439000000     1.333000000    -6.092000000
H    -0.465000000     0.016000000    -5.346000000
O     3.922000000    -2.170000000     2.791000000
H     3.596000000    -1.955000000     1.917000000
H     3.412000000    -1.615000000     3.381000000
O    -0.745000000    -4.742000000     3.309000000
H    -1.305000000    -4.700000000     2.533000000
H     0.143000000    -4.631000000     2.970000000
O    -0.681000000    -2.053000000    -6.588000000
H    -0.301000000    -2.252000000    -7.443000000
H    -1.609000000    -1.899000000    -6.768000000
O     0.718000000    -4.183000000    -5.095000000
H     0.993000000    -5.015000000    -5.480000000
H     0.200000000    -3.761000000    -5.780000000
O    -1.390000000     4.869000000     1.181000000
H    -0.849000000     4.158000000     1.524000000
H    -1.544000000     5.438000000     1.935000000
O     3.278000000     0.463000000    -3.705000000
H     2.615000000     0.048000000    -4.257000000
H     3.954000000    -0.207000000    -3.599000000
O    -0.648000000    -0.492000000     5.024000000
H    -0.819000000     0.312000000     5.514000000
H    -1.399000000    -0.581000000     4.438000000
O    -3.274000000    -5.410000000    -4.298000000
H    -2.456000000    -5.592000000    -4.760000000
H    -3.638000000    -4.648000000    -4.749000000
O     4.376000000    -3.935000000    -1.881000000
H     3.512000000    -3.872000000    -2.289000000
H     4.271000000    -4.596000000    -1.197000000
O     0.091000000     5.979000000    -0.739000000
H     0.950000000     5.563000000    -0.811000000
H    -0.376000000     5.455000000    -0.089000000
O    -1.317000000     2.671000000    -3.083000000
H    -1.134000000     2.027000000    -3.767000000
H    -1.950000000     2.238000000    -2.510000000
O    -4.597000000    -5.062000000     3.513000000
H    -4.632000000    -5.431000000     2.630000000
H    -3.718000000    -4.690000000     3.582000000
O     4.062000000     0.501000000     1.121000000
H     4.865000000     0.531000000     0.601000000
H     3.528000000    -0.172000000     0.699000000
O     2.495000000     4.591000000    -1.201000000
H     2.391000000     4.172000000    -0.347000000
H     3.053000000     3.991000000    -1.696000000
