158
-3013.15123
C     0.051000000     1.486000000     0.260000000
H     0.199000000     2.563000000     0.241000000
C    -0.114000000     0.953000000    -0.942000000
H    -0.281000000     1.558000000    -1.830000000
C    -0.211000000    -0.475000000    -1.076000000
H    -0.462000000    -0.988000000    -2.085000000
C    -0.100000000    -1.284000000    -0.022000000
H     0.036000000    -2.360000000    -0.106000000
C     0.150000000    -0.701000000     1.205000000
H     0.225000000    -1.330000000     2.089000000
C     0.112000000     0.688000000     1.400000000
C     0.439000000     1.237000000     2.763000000
O     0.665000000     2.430000000     2.818000000
O     0.430000000     0.581000000     3.820000000
O    -3.094000000    -2.760000000    -3.544000000
H    -2.900000000    -2.940000000    -2.624000000
H    -2.472000000    -2.076000000    -3.791000000
O    -4.572000000     0.765000000    -1.348000000
H    -4.186000000     0.466000000    -2.172000000
H    -3.925000000     0.534000000    -0.682000000
O    -5.793000000    -2.725000000    -4.473000000
H    -4.836000000    -2.708000000    -4.474000000
H    -6.049000000    -1.816000000    -4.627000000
O    -3.973000000    -1.874000000     2.934000000
H    -3.748000000    -1.471000000     2.095000000
H    -4.256000000    -1.142000000     3.482000000
O    -1.968000000     7.067000000     2.427000000
H    -2.571000000     7.580000000     2.964000000
H    -1.794000000     6.282000000     2.946000000
O     1.491000000    -1.717000000     7.014000000
H     1.385000000    -1.146000000     6.252000000
H     1.814000000    -1.137000000     7.704000000
O     2.220000000     1.389000000    -3.210000000
H     1.874000000     1.260000000    -2.327000000
H     2.581000000     0.536000000    -3.453000000
O    -3.225000000    -4.559000000     2.894000000
H    -3.829000000    -3.819000000     2.957000000
H    -2.400000000    -4.226000000     3.249000000
O     3.861000000     4.036000000     5.649000000
H     3.009000000     3.618000000     5.770000000
H     3.939000000     4.150000000     4.701000000
O    -4.819000000     3.882000000    -0.411000000
H    -4.543000000     3.157000000    -0.971000000
H    -5.276000000     4.481000000    -1.002000000
O    -2.586000000    -4.037000000    -0.812000000
H    -3.338000000    -4.511000000    -1.166000000
H    -2.128000000    -4.683000000    -0.274000000
O    -1.648000000    -5.915000000     1.160000000
H    -2.184000000    -6.643000000     0.845000000
H    -2.231000000    -5.419000000     1.735000000
O     2.680000000    -1.387000000     3.872000000
H     2.817000000    -1.426000000     2.926000000
H     1.992000000    -0.731000000     3.987000000
O    -0.223000000     0.664000000    -6.876000000
H     0.487000000     1.267000000    -6.660000000
H    -0.556000000     0.977000000    -7.717000000
O    -3.173000000     7.005000000    -0.066000000
H    -2.640000000     6.300000000    -0.433000000
H    -2.800000000     7.161000000     0.801000000
O    -0.956000000    -2.418000000     6.061000000
H    -0.829000000    -3.030000000     5.336000000
H    -0.070000000    -2.163000000     6.317000000
O     3.210000000    -1.068000000    -4.212000000
H     3.042000000    -1.979000000    -3.973000000
H     3.962000000    -0.815000000    -3.677000000
O    -0.997000000    -1.123000000    -4.658000000
H    -0.790000000    -0.492000000    -5.348000000
H    -0.484000000    -1.899000000    -4.882000000
O     1.535000000     2.661000000    -5.999000000
H     2.163000000     2.009000000    -6.309000000
H     1.591000000     2.613000000    -5.045000000
O     1.261000000     2.798000000     5.320000000
H     1.277000000     2.021000000     5.879000000
H     0.998000000     2.469000000     4.460000000
O    -2.878000000     0.253000000     7.907000000
H    -2.549000000     0.264000000     7.009000000
H    -2.959000000     1.177000000     8.144000000
O     3.447000000     3.240000000    -0.780000000
H     4.375000000     3.062000000    -0.630000000
H     3.409000000     3.575000000    -1.676000000
O    -2.776000000    -1.063000000     0.027000000
H    -2.728000000    -1.992000000    -0.197000000
H    -1.873000000    -0.820000000     0.234000000
O     4.559000000     1.328000000     1.812000000
H     4.188000000     0.448000000     1.877000000
H     4.627000000     1.490000000     0.871000000
O    -1.610000000     0.152000000     5.379000000
H    -0.900000000     0.349000000     4.768000000
H    -1.478000000    -0.766000000     5.613000000
O     3.378000000    -1.614000000     1.195000000
H     2.497000000    -1.585000000     0.822000000
H     3.941000000    -1.859000000     0.460000000
O     0.751000000     5.475000000    -2.888000000
H     1.668000000     5.204000000    -2.931000000
H     0.684000000     6.193000000    -3.518000000
O     2.879000000    -3.564000000     5.385000000
H     3.026000000    -2.889000000     4.722000000
H     2.571000000    -3.082000000     6.153000000
O    -1.927000000     3.935000000     0.149000000
H    -2.833000000     3.956000000     0.458000000
H    -1.401000000     3.979000000     0.947000000
O    -3.511000000    -5.750000000    -4.046000000
H    -3.428000000    -4.797000000    -4.021000000
H    -4.418000000    -5.904000000    -4.310000000
O    -3.001000000     2.461000000     5.126000000
H    -3.008000000     2.476000000     6.083000000
H    -2.768000000     1.560000000     4.902000000
O     4.722000000    -1.864000000    -1.161000000
H     5.080000000    -1.241000000    -1.792000000
H     4.583000000    -2.665000000    -1.667000000
O    -1.808000000     5.024000000    -5.489000000
H    -2.141000000     4.243000000    -5.047000000
H    -2.506000000     5.672000000    -5.389000000
O    -3.288000000     2.981000000    -3.967000000
H    -2.957000000     3.595000000    -3.311000000
H    -4.129000000     3.351000000    -4.237000000
O     0.667000000    -6.735000000    -0.290000000
H     0.216000000    -6.446000000     0.503000000
H     0.486000000    -7.674000000    -0.339000000
O     2.105000000    -3.510000000    -3.239000000
H     1.628000000    -4.229000000    -3.654000000
H     1.972000000    -3.645000000    -2.300000000
O     3.430000000    -5.994000000    -0.165000000
H     2.509000000    -6.167000000     0.031000000
H     3.522000000    -6.214000000    -1.093000000
O    -1.233000000     4.714000000     3.632000000
H    -1.653000000     4.022000000     4.142000000
H    -0.391000000     4.341000000     3.369000000
O    -0.626000000    -4.703000000     4.275000000
H    -1.090000000    -5.510000000     4.500000000
H     0.044000000    -4.979000000     3.650000000
O     0.372000000    -6.228000000    -2.910000000
H     0.530000000    -6.471000000    -1.997000000
H    -0.580000000    -6.168000000    -2.980000000
O     1.408000000     6.421000000     3.057000000
H     1.540000000     5.760000000     2.378000000
H     0.521000000     6.262000000     3.377000000
O    -3.339000000     0.272000000    -3.682000000
H    -3.004000000     1.168000000    -3.675000000
H    -2.663000000    -0.233000000    -4.132000000
O     1.541000000     4.372000000     1.286000000
H     1.203000000     3.619000000     1.771000000
H     2.067000000     3.988000000     0.585000000
O     0.932000000     6.718000000    -0.319000000
H     0.952000000     5.952000000     0.254000000
H     0.959000000     6.356000000    -1.204000000
O    -2.033000000     4.769000000    -2.434000000
H    -1.808000000     4.545000000    -1.531000000
H    -1.196000000     4.998000000    -2.839000000
O    -6.016000000    -2.522000000    -1.116000000
H    -5.573000000    -3.370000000    -1.148000000
H    -5.326000000    -1.885000000    -1.296000000
O     3.960000000     3.762000000     2.502000000
H     3.015000000     3.720000000     2.355000000
H     4.225000000     2.849000000     2.617000000
O     3.484000000     0.386000000    -6.582000000
H     3.313000000    -0.232000000    -5.871000000
H     3.579000000    -0.165000000    -7.359000000
