158
-3012.03503
C     0.593000000     1.328000000    -0.082000000
H     0.959000000     2.334000000    -0.272000000
C     0.348000000     0.445000000    -1.113000000
H     0.477000000     0.691000000    -2.164000000
C    -0.029000000    -0.853000000    -0.884000000
H    -0.170000000    -1.500000000    -1.780000000
C    -0.341000000    -1.269000000     0.407000000
H    -0.583000000    -2.315000000     0.573000000
C    -0.272000000    -0.307000000     1.453000000
H    -0.533000000    -0.712000000     2.428000000
C     0.223000000     1.009000000     1.238000000
C     0.245000000     2.051000000     2.344000000
O     0.660000000     3.135000000     2.058000000
O    -0.243000000     1.907000000     3.438000000
O     0.653000000    -4.864000000     1.828000000
H     0.492000000    -4.624000000     0.916000000
H     1.396000000    -5.466000000     1.790000000
O    -6.126000000     0.295000000    -4.219000000
H    -5.236000000     0.564000000    -3.993000000
H    -6.196000000     0.463000000    -5.159000000
O    -0.637000000    -7.136000000     2.558000000
H     0.117000000    -6.604000000     2.303000000
H    -0.779000000    -6.924000000     3.480000000
O    -3.694000000    -1.554000000    -4.166000000
H    -3.678000000    -0.679000000    -3.778000000
H    -2.833000000    -1.921000000    -3.963000000
O     4.352000000    -0.600000000     5.504000000
H     3.905000000    -0.044000000     4.866000000
H     4.911000000     0.002000000     5.996000000
O    -3.713000000     0.721000000    -2.955000000
H    -2.823000000     0.989000000    -3.185000000
H    -3.725000000     0.722000000    -1.998000000
O    -5.007000000    -2.488000000     2.646000000
H    -4.257000000    -2.736000000     3.188000000
H    -5.458000000    -1.815000000     3.156000000
O    -4.198000000     6.000000000     1.155000000
H    -4.101000000     6.470000000     0.326000000
H    -3.382000000     5.507000000     1.247000000
O     1.418000000    -0.891000000     7.967000000
H     1.469000000    -0.217000000     7.290000000
H     1.910000000    -0.530000000     8.704000000
O     1.450000000     3.512000000    -3.051000000
H     1.633000000     3.608000000    -2.116000000
H     1.904000000     2.708000000    -3.302000000
O    -4.314000000     2.245000000     0.603000000
H    -4.157000000     2.145000000     1.542000000
H    -3.792000000     1.552000000     0.197000000
O    -3.030000000    -3.562000000     4.281000000
H    -2.224000000    -3.917000000     3.905000000
H    -2.757000000    -3.177000000     5.114000000
O     1.289000000     0.557000000     5.612000000
H     1.826000000    -0.043000000     5.093000000
H     0.680000000     0.940000000     4.981000000
O    -1.363000000    -1.941000000     5.951000000
H    -0.481000000    -2.257000000     5.754000000
H    -1.635000000    -2.452000000     6.713000000
O     1.745000000    -1.195000000    -4.126000000
H     1.942000000    -2.096000000    -4.383000000
H     0.885000000    -1.248000000    -3.709000000
O    -0.863000000    -1.895000000    -4.742000000
H    -0.440000000    -2.707000000    -4.464000000
H    -0.523000000    -1.736000000    -5.622000000
O    -1.321000000    -6.364000000    -2.252000000
H    -1.184000000    -7.041000000    -1.589000000
H    -0.752000000    -6.622000000    -2.978000000
O     1.610000000     3.323000000     4.799000000
H     1.780000000     2.563000000     5.356000000
H     0.886000000     3.050000000     4.235000000
O    -3.290000000     1.557000000     7.528000000
H    -2.943000000     1.542000000     6.636000000
H    -3.670000000     2.431000000     7.622000000
O     0.593000000    -1.422000000    -7.068000000
H     1.294000000    -2.069000000    -6.984000000
H     0.126000000    -1.677000000    -7.864000000
O     4.580000000     5.978000000     2.014000000
H     5.438000000     5.561000000     2.094000000
H     3.956000000     5.255000000     2.073000000
O     3.887000000     1.649000000     0.167000000
H     3.101000000     1.158000000    -0.073000000
H     4.101000000     2.157000000    -0.616000000
O     0.823000000     6.156000000     5.911000000
H     0.937000000     6.211000000     6.859000000
H     0.755000000     5.219000000     5.732000000
O    -2.767000000     0.434000000    -0.222000000
H    -3.107000000    -0.400000000     0.100000000
H    -1.821000000     0.302000000    -0.277000000
O     3.506000000     1.229000000     3.426000000
H     3.292000000     0.877000000     2.562000000
H     3.350000000     2.170000000     3.346000000
O    -2.044000000     0.788000000     4.858000000
H    -1.368000000     1.176000000     4.302000000
H    -1.841000000    -0.147000000     4.865000000
O     2.676000000    -1.296000000     1.579000000
H     1.768000000    -1.430000000     1.308000000
H     3.182000000    -1.382000000     0.771000000
O    -3.347000000     4.064000000    -1.297000000
H    -3.677000000     3.628000000    -0.512000000
H    -2.655000000     4.642000000    -0.977000000
O    -3.670000000     2.564000000     3.686000000
H    -3.606000000     2.777000000     4.617000000
H    -3.340000000     1.668000000     3.622000000
O     3.533000000    -1.306000000    -0.984000000
H     3.384000000    -0.646000000    -1.661000000
H     2.975000000    -2.041000000    -1.239000000
O     0.405000000    -4.342000000    -0.689000000
H    -0.040000000    -4.886000000    -1.339000000
H     1.218000000    -4.074000000    -1.116000000
O     1.144000000    -4.265000000    -4.266000000
H     1.267000000    -5.048000000    -4.803000000
H     1.836000000    -4.317000000    -3.606000000
O     2.626000000     4.158000000    -0.554000000
H     1.914000000     4.678000000    -0.182000000
H     3.220000000     4.804000000    -0.936000000
O    -3.562000000    -4.504000000    -1.217000000
H    -2.771000000    -5.015000000    -1.389000000
H    -4.129000000    -5.099000000    -0.726000000
O     4.707000000    -2.751000000     3.061000000
H     3.898000000    -2.418000000     2.672000000
H     4.735000000    -2.353000000     3.931000000
O    -2.077000000     4.134000000     1.933000000
H    -2.406000000     3.354000000     2.380000000
H    -1.133000000     3.991000000     1.865000000
O     6.258000000     1.909000000     1.436000000
H     6.429000000     1.121000000     1.953000000
H     5.382000000     1.773000000     1.076000000
O     0.272000000    -3.755000000     4.333000000
H     0.005000000    -4.459000000     4.924000000
H     0.580000000    -4.205000000     3.547000000
O     1.552000000     7.358000000     3.430000000
H     1.289000000     6.914000000     4.236000000
H     1.222000000     8.251000000     3.529000000
O    -1.367000000     0.916000000    -4.327000000
H    -1.313000000     1.330000000    -5.188000000
H    -1.214000000    -0.014000000    -4.499000000
O     0.971000000     5.680000000     1.127000000
H     0.844000000     4.841000000     1.572000000
H     1.136000000     6.303000000     1.835000000
O    -1.929000000     6.198000000    -0.625000000
H    -1.258000000     6.164000000     0.057000000
H    -1.484000000     6.582000000    -1.380000000
O     3.229000000     1.030000000    -2.989000000
H     2.938000000     0.751000000    -3.857000000
H     3.988000000     1.589000000    -3.158000000
O     2.831000000    -4.177000000    -1.901000000
H     2.908000000    -5.116000000    -1.729000000
H     3.701000000    -3.918000000    -2.205000000
O    -1.026000000     4.872000000    -4.002000000
H    -1.815000000     4.437000000    -3.679000000
H    -0.304000000     4.380000000    -3.610000000
O    -3.761000000    -1.939000000     0.132000000
H    -3.907000000    -2.255000000     1.024000000
H    -3.474000000    -2.713000000    -0.352000000
O     3.115000000     3.760000000     2.305000000
H     2.209000000     3.586000000     2.559000000
H     3.179000000     3.432000000     1.408000000
O     2.088000000     0.753000000    -5.929000000
H     1.824000000    -0.153000000    -5.769000000
H     2.403000000     0.755000000    -6.833000000
