158
-3013.65654
C     1.071000000     1.006000000    -0.151000000
H     1.937000000     1.644000000    -0.304000000
C     0.839000000    -0.098000000    -0.949000000
H     1.400000000    -0.279000000    -1.862000000
C    -0.292000000    -0.937000000    -0.771000000
H    -0.470000000    -1.794000000    -1.414000000
C    -1.109000000    -0.653000000     0.302000000
H    -1.862000000    -1.410000000     0.507000000
C    -0.858000000     0.316000000     1.243000000
H    -1.562000000     0.502000000     2.050000000
C     0.276000000     1.178000000     1.017000000
C     0.613000000     2.244000000     2.004000000
O     1.658000000     2.876000000     1.815000000
O    -0.145000000     2.500000000     2.917000000
O    -1.867000000    -4.569000000     0.997000000
H    -1.581000000    -4.448000000     0.092000000
H    -1.752000000    -5.505000000     1.161000000
O    -1.983000000    -2.830000000    -4.316000000
H    -1.733000000    -2.033000000    -3.848000000
H    -2.613000000    -2.534000000    -4.973000000
O     3.875000000     1.527000000     2.986000000
H     3.403000000     2.004000000     2.304000000
H     4.466000000     0.946000000     2.508000000
O     5.654000000     0.476000000    -1.231000000
H     5.134000000    -0.272000000    -1.523000000
H     6.548000000     0.266000000    -1.500000000
O    -2.230000000     3.174000000     1.030000000
H    -2.051000000     4.087000000     1.254000000
H    -1.530000000     2.681000000     1.458000000
O     1.090000000     0.684000000     7.465000000
H     1.149000000     0.744000000     6.511000000
H     1.927000000     0.306000000     7.733000000
O    -1.651000000     0.353000000     5.623000000
H    -0.969000000     0.193000000     4.970000000
H    -1.319000000     1.086000000     6.141000000
O    -0.570000000     3.398000000    -1.554000000
H    -0.047000000     2.652000000    -1.260000000
H    -1.427000000     3.024000000    -1.757000000
O    -5.707000000    -1.894000000     1.763000000
H    -5.849000000    -1.046000000     1.341000000
H    -6.517000000    -2.059000000     2.246000000
O    -3.812000000    -0.038000000    -0.421000000
H    -4.577000000     0.352000000     0.004000000
H    -3.067000000     0.278000000     0.091000000
O     2.151000000     4.363000000     4.009000000
H     1.936000000     3.721000000     3.332000000
H     2.995000000     4.074000000     4.354000000
O    -4.526000000    -1.667000000    -2.451000000
H    -5.106000000    -2.315000000    -2.050000000
H    -4.211000000    -1.141000000    -1.716000000
O     3.338000000    -4.206000000    -1.767000000
H     3.571000000    -4.531000000    -0.897000000
H     2.636000000    -4.787000000    -2.060000000
O     1.870000000    -6.364000000    -1.585000000
H     0.973000000    -6.652000000    -1.414000000
H     2.228000000    -7.029000000    -2.173000000
O    -4.832000000     3.873000000     4.526000000
H    -5.173000000     4.615000000     4.027000000
H    -3.891000000     3.878000000     4.349000000
O    -5.413000000    -3.516000000    -0.687000000
H    -5.630000000    -3.108000000     0.151000000
H    -5.116000000    -4.396000000    -0.455000000
O     1.262000000     0.991000000     4.824000000
H     0.547000000     1.312000000     4.275000000
H     2.050000000     1.378000000     4.442000000
O     1.230000000    -0.792000000    -6.261000000
H     0.880000000    -1.526000000    -5.756000000
H     1.734000000    -1.203000000    -6.963000000
O     2.076000000    -5.833000000     1.333000000
H     2.261000000    -6.232000000     0.482000000
H     2.903000000    -5.429000000     1.592000000
O    -1.036000000     0.311000000    -4.084000000
H    -1.219000000     0.388000000    -5.020000000
H    -0.139000000     0.633000000    -3.988000000
O    -1.889000000     5.542000000     2.359000000
H    -1.760000000     5.028000000     3.156000000
H    -1.004000000     5.713000000     2.038000000
O    -2.150000000     3.287000000     4.445000000
H    -1.958000000     2.821000000     5.259000000
H    -1.525000000     2.932000000     3.813000000
O    -1.556000000     2.688000000     7.115000000
H    -1.791000000     3.616000000     7.111000000
H    -1.549000000     2.447000000     8.042000000
O    -2.655000000    -2.165000000     4.418000000
H    -3.017000000    -1.710000000     5.178000000
H    -3.393000000    -2.659000000     4.061000000
O     5.833000000     5.399000000     2.237000000
H     5.339000000     5.168000000     3.023000000
H     5.224000000     5.244000000     1.516000000
O    -2.792000000     1.668000000    -2.311000000
H    -2.207000000     1.127000000    -2.841000000
H    -3.377000000     1.042000000    -1.885000000
O    -0.261000000     5.220000000     4.864000000
H     0.643000000     4.943000000     4.720000000
H    -0.729000000     4.412000000     5.075000000
O     4.509000000     3.126000000    -1.482000000
H     4.752000000     2.209000000    -1.606000000
H     5.007000000     3.598000000    -2.149000000
O     4.803000000     4.459000000     4.956000000
H     4.874000000     5.335000000     5.335000000
H     4.715000000     3.877000000     5.712000000
O     3.575000000    -0.974000000     1.147000000
H     2.644000000    -0.853000000     0.958000000
H     4.024000000    -0.454000000     0.480000000
O     1.058000000    -1.716000000     4.802000000
H     1.122000000    -0.769000000     4.677000000
H     0.394000000    -1.996000000     4.172000000
O    -4.951000000     3.199000000     0.008000000
H    -4.791000000     3.606000000    -0.844000000
H    -4.084000000     3.129000000     0.406000000
O    -4.129000000    -4.933000000    -3.479000000
H    -3.671000000    -4.181000000    -3.104000000
H    -5.054000000    -4.767000000    -3.294000000
O     3.667000000    -1.433000000    -1.753000000
H     2.740000000    -1.671000000    -1.780000000
H     4.129000000    -2.271000000    -1.741000000
O     4.686000000     0.974000000    -4.212000000
H     5.207000000     0.174000000    -4.151000000
H     5.330000000     1.682000000    -4.185000000
O     0.588000000    -3.075000000    -4.861000000
H    -0.343000000    -3.176000000    -4.662000000
H     0.985000000    -3.897000000    -4.573000000
O     1.625000000    -5.595000000    -5.023000000
H     1.382000000    -6.391000000    -4.549000000
H     1.594000000    -5.847000000    -5.946000000
O     0.627000000     5.946000000     1.712000000
H     1.006000000     5.087000000     1.898000000
H     0.993000000     6.191000000     0.863000000
O     1.926000000     1.003000000    -4.337000000
H     1.673000000     0.304000000    -4.940000000
H     2.874000000     0.904000000    -4.241000000
O    -0.542000000    -3.283000000     3.150000000
H    -1.195000000    -2.905000000     3.739000000
H    -1.039000000    -3.531000000     2.370000000
O    -1.757000000    -6.313000000    -4.144000000
H    -2.600000000    -6.231000000    -3.697000000
H    -1.711000000    -5.544000000    -4.711000000
O    -0.966000000     0.953000000    -6.828000000
H    -0.198000000     0.441000000    -6.577000000
H    -0.758000000     1.847000000    -6.555000000
O     0.145000000     5.918000000    -0.960000000
H    -0.104000000     4.997000000    -1.034000000
H    -0.649000000     6.400000000    -1.188000000
O     2.461000000     3.717000000    -3.198000000
H     2.032000000     2.943000000    -3.564000000
H     3.046000000     3.371000000    -2.525000000
O     4.028000000    -2.660000000    -5.586000000
H     3.075000000    -2.677000000    -5.491000000
H     4.173000000    -2.506000000    -6.519000000
O    -4.062000000    -3.951000000     2.989000000
H    -4.540000000    -3.248000000     2.549000000
H    -3.418000000    -4.244000000     2.344000000
O     6.634000000     1.315000000     1.436000000
H     6.210000000     0.922000000     0.673000000
H     7.484000000     1.613000000     1.110000000
O     3.878000000     4.319000000     1.015000000
H     3.045000000     3.895000000     1.221000000
H     4.072000000     4.042000000     0.119000000
