158
-3060.05376
C    -0.090000000     1.474000000    -0.385000000
H    -0.086000000     2.500000000    -0.743000000
C     0.528000000     0.463000000    -1.169000000
H     0.993000000     0.715000000    -2.119000000
C     0.486000000    -0.859000000    -0.741000000
H     1.003000000    -1.673000000    -1.292000000
C    -0.124000000    -1.198000000     0.473000000
H    -0.288000000    -2.220000000     0.805000000
C    -0.698000000    -0.194000000     1.222000000
H    -1.182000000    -0.475000000     2.154000000
C    -0.660000000     1.169000000     0.855000000
C    -1.198000000     2.200000000     1.747000000
O    -1.197000000     3.331000000     1.377000000
O    -1.696000000     1.826000000     2.840000000
O    -1.635000000    -5.662000000    -1.095000000
H    -2.506000000    -5.281000000    -1.206000000
H    -1.534000000    -5.760000000    -0.148000000
O    -1.903000000     2.116000000    -4.840000000
H    -1.080000000     1.856000000    -4.425000000
H    -1.940000000     1.598000000    -5.644000000
O     1.548000000     5.274000000     5.118000000
H     2.017000000     5.665000000     4.381000000
H     0.748000000     4.918000000     4.732000000
O     6.159000000    -0.540000000    -2.659000000
H     5.752000000     0.216000000    -2.236000000
H     6.593000000    -0.177000000    -3.431000000
O    -3.942000000     3.447000000     2.927000000
H    -3.123000000     2.957000000     2.855000000
H    -4.314000000     3.423000000     2.045000000
O     1.041000000     1.362000000     6.616000000
H     0.174000000     1.494000000     7.000000000
H     1.639000000     1.801000000     7.220000000
O    -1.868000000    -2.239000000    -2.819000000
H    -2.555000000    -2.726000000    -3.275000000
H    -1.202000000    -2.897000000    -2.619000000
O    -5.496000000     1.325000000     4.846000000
H    -4.545000000     1.410000000     4.909000000
H    -5.695000000     1.530000000     3.933000000
O    -0.654000000     3.884000000     4.324000000
H    -1.161000000     3.094000000     4.136000000
H    -1.259000000     4.604000000     4.149000000
O    -2.832000000     3.967000000    -0.964000000
H    -2.205000000     3.959000000    -0.241000000
H    -3.533000000     3.381000000    -0.680000000
O     2.692000000    -4.583000000    -1.661000000
H     3.332000000    -4.404000000    -2.350000000
H     2.895000000    -3.949000000    -0.974000000
O    -3.415000000    -2.463000000     0.409000000
H    -3.627000000    -3.110000000    -0.264000000
H    -3.053000000    -1.722000000    -0.077000000
O     1.295000000     0.837000000     4.005000000
H     1.401000000     1.300000000     4.836000000
H     0.347000000     0.770000000     3.889000000
O     3.412000000    -2.998000000    -5.245000000
H     2.531000000    -3.370000000    -5.203000000
H     3.612000000    -2.961000000    -6.180000000
O     0.655000000    -3.213000000     3.298000000
H     0.385000000    -2.739000000     2.512000000
H     1.345000000    -2.670000000     3.680000000
O    -2.131000000     8.318000000    -0.162000000
H    -2.443000000     8.432000000    -1.059000000
H    -1.373000000     7.739000000    -0.243000000
O     3.905000000    -2.977000000     0.372000000
H     3.742000000    -2.146000000    -0.075000000
H     4.438000000    -2.740000000     1.131000000
O    -3.627000000    -3.643000000    -3.934000000
H    -4.503000000    -4.027000000    -3.981000000
H    -3.089000000    -4.205000000    -4.493000000
O    -4.110000000     4.224000000     5.424000000
H    -4.132000000     3.924000000     4.515000000
H    -4.462000000     3.490000000     5.927000000
O    -2.842000000     1.403000000     5.240000000
H    -2.786000000     0.451000000     5.319000000
H    -2.548000000     1.587000000     4.347000000
O    -1.538000000     2.671000000     7.404000000
H    -2.064000000     2.434000000     6.640000000
H    -1.599000000     3.625000000     7.450000000
O    -2.904000000     0.056000000    -1.495000000
H    -2.764000000    -0.661000000    -2.113000000
H    -2.024000000     0.302000000    -1.210000000
O    -0.715000000    -7.092000000     1.264000000
H    -1.093000000    -7.933000000     1.522000000
H    -1.254000000    -6.441000000     1.714000000
O    -4.407000000    -2.548000000     2.906000000
H    -4.123000000    -2.643000000     1.997000000
H    -5.363000000    -2.568000000     2.862000000
O    -5.306000000     1.353000000    -1.314000000
H    -4.526000000     0.815000000    -1.451000000
H    -6.039000000     0.757000000    -1.473000000
O     4.406000000     1.749000000    -1.831000000
H     3.901000000     1.958000000    -2.617000000
H     5.216000000     2.249000000    -1.926000000
O     2.524000000     2.629000000     2.274000000
H     2.660000000     1.857000000     1.725000000
H     1.781000000     2.398000000     2.832000000
O     2.727000000    -1.494000000     3.849000000
H     2.813000000    -1.922000000     4.701000000
H     2.330000000    -0.646000000     4.047000000
O    -3.938000000     7.193000000     1.973000000
H    -4.516000000     7.877000000     1.634000000
H    -3.405000000     6.936000000     1.221000000
O     5.827000000    -3.096000000    -3.909000000
H     4.981000000    -3.051000000    -4.355000000
H     5.820000000    -2.353000000    -3.306000000
O    -2.073000000    -4.601000000     1.813000000
H    -2.460000000    -4.529000000     2.685000000
H    -2.408000000    -3.839000000     1.339000000
O     0.009000000    -5.533000000     4.645000000
H     0.277000000    -4.711000000     4.234000000
H     0.312000000    -6.212000000     4.042000000
O     0.790000000     2.925000000    -4.269000000
H     0.597000000     2.794000000    -5.198000000
H     0.469000000     3.806000000    -4.079000000
O     3.082000000     0.387000000     0.514000000
H     2.159000000     0.178000000     0.373000000
H     3.314000000     0.957000000    -0.219000000
O     0.116000000    -4.500000000    -2.817000000
H    -0.532000000    -4.892000000    -2.231000000
H     0.960000000    -4.722000000    -2.424000000
O     0.741000000    -3.451000000    -5.323000000
H     0.579000000    -3.862000000    -4.474000000
H    -0.054000000    -3.621000000    -5.828000000
O    -1.734000000     6.404000000     3.486000000
H    -2.619000000     6.609000000     3.186000000
H    -1.232000000     6.275000000     2.681000000
O     4.952000000    -0.788000000     2.314000000
H     4.510000000    -0.232000000     1.672000000
H     4.249000000    -1.104000000     2.881000000
O     3.292000000     2.247000000    -4.311000000
H     3.202000000     1.425000000    -4.792000000
H     2.405000000     2.605000000    -4.278000000
O    -2.539000000    -1.175000000     4.652000000
H    -1.801000000    -1.776000000     4.549000000
H    -3.271000000    -1.620000000     4.227000000
O    -1.817000000     4.659000000    -3.800000000
H    -2.043000000     4.624000000    -2.871000000
H    -1.973000000     3.770000000    -4.119000000
O     3.131000000    -0.087000000    -5.784000000
H     3.340000000    -0.332000000    -6.685000000
H     3.155000000    -0.912000000    -5.300000000
O    -0.195000000     5.557000000     0.856000000
H    -0.551000000     4.718000000     1.148000000
H     0.754000000     5.446000000     0.910000000
O     1.136000000     8.189000000     0.627000000
H     0.502000000     8.742000000     1.084000000
H     0.888000000     7.295000000     0.864000000
O    -0.524000000    -0.585000000    -4.542000000
H    -0.885000000    -0.886000000    -3.708000000
H     0.077000000    -1.281000000    -4.809000000
O     1.305000000    -7.993000000    -0.359000000
H     0.456000000    -7.744000000     0.006000000
H     1.781000000    -7.166000000    -0.443000000
O     2.477000000     5.351000000     1.635000000
H     2.804000000     5.900000000     2.348000000
H     2.692000000     4.457000000     1.902000000
O    -5.866000000     3.376000000     0.539000000
H    -5.864000000     4.145000000    -0.030000000
H    -5.686000000     2.642000000    -0.049000000
