158
-2999.47218
C     0.904000000     0.645000000    -0.944000000
H     1.501000000     1.079000000    -1.742000000
C     0.156000000    -0.498000000    -1.179000000
H     0.175000000    -1.027000000    -2.129000000
C    -0.732000000    -0.995000000    -0.218000000
H    -1.275000000    -1.940000000    -0.501000000
C    -0.764000000    -0.351000000     1.020000000
H    -1.394000000    -0.662000000     1.849000000
C     0.052000000     0.719000000     1.344000000
H     0.057000000     1.073000000     2.372000000
C     0.868000000     1.315000000     0.346000000
C     1.751000000     2.493000000     0.550000000
O     2.055000000     3.223000000    -0.364000000
O     2.119000000     2.780000000     1.667000000
O    -2.826000000    -6.862000000     1.524000000
H    -2.085000000    -6.921000000     2.126000000
H    -3.079000000    -5.939000000     1.545000000
O    -2.945000000    -3.414000000    -5.673000000
H    -3.545000000    -3.051000000    -5.021000000
H    -2.561000000    -2.647000000    -6.098000000
O    -2.657000000     1.323000000    -0.631000000
H    -2.987000000     2.144000000    -0.266000000
H    -1.937000000     1.076000000    -0.051000000
O     2.214000000     7.904000000     2.838000000
H     1.594000000     7.661000000     3.526000000
H     2.321000000     7.106000000     2.320000000
O     1.556000000     0.840000000     4.959000000
H     1.486000000     1.086000000     4.036000000
H     1.789000000     1.653000000     5.407000000
O     0.867000000     3.470000000    -4.433000000
H     1.822000000     3.528000000    -4.422000000
H     0.680000000     2.551000000    -4.243000000
O    -6.312000000    -0.899000000     1.174000000
H    -6.130000000     0.000000000     1.448000000
H    -6.241000000    -1.413000000     1.978000000
O    -4.040000000    -1.261000000    -0.560000000
H    -4.932000000    -0.991000000    -0.342000000
H    -3.490000000    -0.542000000    -0.248000000
O    -4.184000000    -4.160000000    -0.288000000
H    -4.844000000    -4.607000000     0.242000000
H    -4.149000000    -3.273000000     0.071000000
O    -3.894000000    -1.849000000    -3.362000000
H    -3.800000000    -2.797000000    -3.269000000
H    -4.075000000    -1.539000000    -2.474000000
O     5.761000000     2.306000000     5.519000000
H     5.338000000     2.295000000     4.661000000
H     5.144000000     1.856000000     6.096000000
O    -0.512000000     3.034000000     4.954000000
H    -1.109000000     3.358000000     4.279000000
H    -0.468000000     3.744000000     5.595000000
O    -3.957000000    -4.371000000    -2.980000000
H    -3.986000000    -5.328000000    -2.971000000
H    -4.012000000    -4.121000000    -2.058000000
O     4.096000000     2.078000000     3.297000000
H     3.369000000     2.520000000     2.857000000
H     4.831000000     2.164000000     2.690000000
O    -5.285000000    -2.925000000     3.058000000
H    -5.105000000    -3.793000000     2.698000000
H    -4.594000000    -2.785000000     3.704000000
O    -0.710000000    -7.351000000    -0.531000000
H     0.135000000    -7.327000000    -0.083000000
H    -1.345000000    -7.527000000     0.164000000
O    -0.975000000    -0.361000000     5.061000000
H    -0.132000000    -0.014000000     4.769000000
H    -1.099000000     0.011000000     5.934000000
O     1.370000000     0.726000000    -4.618000000
H     1.404000000    -0.026000000    -4.027000000
H     2.217000000     0.718000000    -5.064000000
O    -3.946000000     3.550000000     0.949000000
H    -3.236000000     3.215000000     1.496000000
H    -4.698000000     2.999000000     1.168000000
O     2.551000000     4.521000000     3.739000000
H     2.411000000     3.900000000     4.454000000
H     2.376000000     4.016000000     2.945000000
O    -1.346000000     1.646000000     7.101000000
H    -1.051000000     2.098000000     6.310000000
H    -0.838000000     2.045000000     7.808000000
O    -2.898000000    -2.145000000     4.713000000
H    -2.196000000    -1.494000000     4.735000000
H    -3.193000000    -2.210000000     5.621000000
O     5.467000000     6.296000000    -1.928000000
H     5.236000000     5.429000000    -1.593000000
H     4.800000000     6.878000000    -1.565000000
O     3.906000000     3.577000000    -3.461000000
H     3.713000000     3.695000000    -2.531000000
H     4.786000000     3.939000000    -3.571000000
O     2.525000000    -5.737000000    -0.142000000
H     2.408000000    -5.313000000    -0.992000000
H     2.342000000    -6.662000000    -0.309000000
O    -3.309000000     0.831000000    -3.256000000
H    -3.388000000    -0.123000000    -3.224000000
H    -2.928000000     1.068000000    -2.411000000
O     1.316000000     6.641000000     4.882000000
H     1.789000000     5.980000000     4.377000000
H     0.613000000     6.156000000     5.313000000
O     4.772000000     1.134000000    -0.399000000
H     4.267000000     0.326000000    -0.490000000
H     5.401000000     1.106000000    -1.120000000
O    -3.056000000     1.164000000     3.735000000
H    -2.213000000     1.240000000     4.182000000
H    -3.359000000     0.280000000     3.941000000
O     2.261000000    -2.249000000     0.588000000
H     1.808000000    -1.413000000     0.703000000
H     2.820000000    -2.115000000    -0.177000000
O     2.505000000    -1.796000000     4.626000000
H     2.169000000    -0.985000000     5.007000000
H     1.722000000    -2.303000000     4.412000000
O     3.845000000    -1.236000000    -1.638000000
H     3.454000000    -1.446000000    -2.486000000
H     4.788000000    -1.320000000    -1.781000000
O    -1.090000000    -5.933000000    -2.875000000
H    -1.979000000    -5.588000000    -2.786000000
H    -0.926000000    -6.388000000    -2.049000000
O     1.951000000    -2.450000000    -3.999000000
H     1.057000000    -2.792000000    -4.012000000
H     2.349000000    -2.790000000    -4.800000000
O    -6.803000000    -4.605000000    -1.983000000
H    -7.412000000    -4.141000000    -1.410000000
H    -5.954000000    -4.524000000    -1.547000000
O     2.293000000    -5.221000000    -2.723000000
H     1.951000000    -4.461000000    -3.193000000
H     1.844000000    -5.969000000    -3.117000000
O     2.959000000     5.601000000     1.098000000
H     3.231000000     5.245000000     1.944000000
H     2.515000000     4.873000000     0.663000000
O     6.907000000     4.954000000     0.679000000
H     5.961000000     4.809000000     0.709000000
H     7.229000000     4.304000000     0.053000000
O     4.180000000    -0.476000000    -4.673000000
H     4.029000000    -1.280000000    -5.171000000
H     5.114000000    -0.496000000    -4.464000000
O     0.478000000    -3.692000000     3.552000000
H    -0.395000000    -3.775000000     3.169000000
H     1.058000000    -4.119000000     2.922000000
O    -0.276000000    -3.908000000    -4.548000000
H    -0.359000000    -4.542000000    -3.836000000
H    -1.175000000    -3.757000000    -4.841000000
O     2.983000000     7.797000000    -1.191000000
H     2.481000000     7.592000000    -1.981000000
H     2.697000000     7.146000000    -0.550000000
O     1.376000000     5.257000000    -2.050000000
H     1.569000000     4.728000000    -1.276000000
H     1.061000000     4.627000000    -2.698000000
O     0.092000000     7.767000000    -2.436000000
H     0.364000000     6.864000000    -2.274000000
H     0.607000000     8.040000000    -3.195000000
O     3.696000000     1.929000000    -5.667000000
H     4.051000000     1.060000000    -5.479000000
H     3.750000000     2.395000000    -4.833000000
O    -2.072000000    -4.390000000     3.670000000
H    -2.731000000    -4.958000000     4.068000000
H    -2.296000000    -3.512000000     3.977000000
O    -6.010000000     0.998000000    -1.704000000
H    -5.332000000     0.944000000    -2.378000000
H    -5.955000000     1.897000000    -1.381000000
O     4.536000000     3.752000000    -0.659000000
H     3.610000000     3.704000000    -0.419000000
H     4.856000000     2.856000000    -0.558000000
