158
-3026.53205
C    -0.064000000     1.026000000    -1.149000000
H    -0.092000000     1.654000000    -2.035000000
C    -0.193000000    -0.385000000    -1.298000000
H    -0.587000000    -0.826000000    -2.210000000
C    -0.108000000    -1.207000000    -0.194000000
H    -0.358000000    -2.254000000    -0.210000000
C     0.098000000    -0.657000000     1.057000000
H     0.280000000    -1.308000000     1.908000000
C     0.306000000     0.708000000     1.221000000
H     0.595000000     1.064000000     2.207000000
C     0.136000000     1.559000000     0.104000000
C     0.389000000     2.957000000     0.475000000
O     0.540000000     3.691000000    -0.395000000
O     0.582000000     3.390000000     1.668000000
O     1.688000000    -5.595000000     1.060000000
H     2.201000000    -6.137000000     0.462000000
H     1.640000000    -6.107000000     1.867000000
O    -1.026000000    -7.797000000     1.260000000
H    -0.854000000    -7.054000000     0.681000000
H    -1.935000000    -8.036000000     1.079000000
O     0.025000000     4.369000000    -5.373000000
H    -0.298000000     4.819000000    -4.592000000
H     0.295000000     3.506000000    -5.059000000
O    -2.473000000     0.690000000    -4.438000000
H    -2.409000000     1.636000000    -4.312000000
H    -3.073000000     0.587000000    -5.177000000
O    -5.636000000     0.545000000    -1.789000000
H    -4.701000000     0.627000000    -1.605000000
H    -5.690000000    -0.138000000    -2.457000000
O    -2.926000000     3.283000000     0.813000000
H    -3.174000000     2.504000000     0.316000000
H    -3.756000000     3.719000000     1.005000000
O    -0.726000000     2.852000000     6.735000000
H    -0.474000000     2.244000000     6.039000000
H    -0.105000000     2.676000000     7.442000000
O    -4.495000000    -3.678000000     0.833000000
H    -3.993000000    -3.638000000     0.019000000
H    -3.909000000    -3.310000000     1.494000000
O     1.592000000    -1.823000000     4.383000000
H     1.884000000    -2.631000000     4.805000000
H     2.141000000    -1.749000000     3.603000000
O    -4.211000000    -6.914000000    -0.998000000
H    -5.050000000    -6.563000000    -1.296000000
H    -3.651000000    -6.144000000    -0.897000000
O    -2.982000000     1.648000000     3.673000000
H    -2.794000000     2.539000000     3.378000000
H    -3.936000000     1.583000000     3.647000000
O    -0.781000000    -5.778000000    -0.516000000
H    -1.113000000    -5.525000000    -1.378000000
H     0.134000000    -5.500000000    -0.520000000
O    -2.727000000     5.544000000     3.009000000
H    -2.458000000     4.981000000     2.283000000
H    -2.138000000     5.309000000     3.725000000
O     3.273000000     0.276000000    -3.400000000
H     3.362000000     0.024000000    -4.319000000
H     3.855000000    -0.320000000    -2.930000000
O    -3.534000000    -3.767000000    -1.745000000
H    -3.006000000    -3.071000000    -2.135000000
H    -3.991000000    -4.165000000    -2.486000000
O    -3.019000000    -1.551000000     2.692000000
H    -2.419000000    -0.902000000     3.060000000
H    -2.461000000    -2.299000000     2.479000000
O     1.151000000     2.084000000    -4.603000000
H     0.809000000     1.426000000    -5.208000000
H     1.738000000     1.596000000    -4.026000000
O    -0.858000000    -1.801000000     5.545000000
H    -0.648000000    -2.629000000     5.978000000
H    -0.107000000    -1.631000000     4.976000000
O     1.781000000    -5.434000000    -1.721000000
H     2.307000000    -4.788000000    -1.249000000
H     2.188000000    -6.275000000    -1.510000000
O     0.504000000    -0.434000000    -5.838000000
H    -0.333000000    -0.235000000    -6.256000000
H     0.385000000    -1.307000000    -5.465000000
O     1.714000000    -3.454000000    -3.723000000
H     2.094000000    -2.814000000    -3.122000000
H     1.377000000    -4.146000000    -3.154000000
O     3.281000000     4.698000000     5.224000000
H     2.801000000     3.944000000     4.882000000
H     2.816000000     5.458000000     4.871000000
O    -1.742000000    -3.975000000     1.765000000
H    -1.519000000    -4.413000000     0.944000000
H    -1.299000000    -4.490000000     2.440000000
O    -2.377000000    -2.238000000    -3.834000000
H    -1.663000000    -2.375000000    -4.456000000
H    -2.464000000    -1.287000000    -3.773000000
O     3.624000000     2.060000000    -1.263000000
H     3.570000000     2.849000000    -1.802000000
H     3.409000000     1.345000000    -1.862000000
O     3.467000000    -3.392000000    -1.112000000
H     4.320000000    -3.748000000    -0.864000000
H     3.391000000    -2.581000000    -0.609000000
O    -3.989000000     5.662000000    -0.889000000
H    -4.201000000     4.737000000    -1.012000000
H    -3.075000000     5.663000000    -0.605000000
O    -0.153000000     7.812000000    -2.265000000
H     0.198000000     8.053000000    -1.407000000
H    -0.700000000     8.556000000    -2.517000000
O     1.859000000     2.593000000     3.833000000
H     1.620000000     2.866000000     2.947000000
H     1.192000000     1.949000000     4.073000000
O     5.143000000     2.280000000     2.888000000
H     4.468000000     2.077000000     3.536000000
H     4.664000000     2.675000000     2.160000000
O    -1.441000000     5.878000000    -0.011000000
H    -1.000000000     6.058000000     0.820000000
H    -1.155000000     4.996000000    -0.247000000
O    -1.289000000    -6.253000000     3.777000000
H    -1.209000000    -6.801000000     2.996000000
H    -0.556000000    -6.519000000     4.332000000
O    -0.349000000     1.050000000     4.648000000
H    -1.164000000     1.254000000     4.189000000
H    -0.509000000     0.196000000     5.050000000
O     3.082000000    -0.750000000    -0.366000000
H     3.728000000    -0.212000000     0.090000000
H     2.246000000    -0.313000000    -0.201000000
O    -0.226000000    -3.051000000    -5.502000000
H     0.066000000    -3.684000000    -4.846000000
H     0.218000000    -3.317000000    -6.306000000
O     2.097000000     0.232000000     6.676000000
H     1.801000000     0.960000000     7.221000000
H     1.402000000     0.119000000     6.028000000
O     2.017000000     6.516000000    -0.214000000
H     1.425000000     7.213000000     0.070000000
H     1.586000000     5.708000000     0.064000000
O    -1.457000000    -5.257000000    -3.190000000
H    -1.785000000    -4.364000000    -3.290000000
H    -1.698000000    -5.693000000    -4.008000000
O     4.618000000    -2.258000000     2.727000000
H     3.834000000    -2.712000000     2.418000000
H     4.909000000    -2.771000000     3.481000000
O    -0.029000000     5.903000000     2.444000000
H     0.266000000     5.913000000     3.354000000
H     0.221000000     5.037000000     2.120000000
O     2.284000000    -3.061000000     1.634000000
H     1.975000000    -3.964000000     1.560000000
H     1.761000000    -2.576000000     0.995000000
O    -2.628000000     3.082000000    -2.862000000
H    -3.318000000     3.374000000    -3.457000000
H    -2.031000000     3.828000000    -2.803000000
O     2.390000000     4.445000000    -2.079000000
H     1.681000000     3.934000000    -1.690000000
H     2.392000000     5.266000000    -1.585000000
O    -0.365000000     5.137000000    -2.622000000
H     0.054000000     4.820000000    -1.821000000
H    -0.377000000     6.089000000    -2.525000000
O    -3.010000000     1.066000000    -1.023000000
H    -2.146000000     0.733000000    -0.779000000
H    -2.831000000     1.724000000    -1.694000000
O     3.397000000     3.452000000     1.009000000
H     2.471000000     3.571000000     1.222000000
H     3.395000000     2.866000000     0.252000000
O    -4.562000000    -0.297000000     0.899000000
H    -4.026000000    -0.689000000     1.588000000
H    -3.934000000     0.159000000     0.338000000
O     2.662000000     4.898000000    -5.003000000
H     1.766000000     4.878000000    -5.337000000
H     2.571000000     4.734000000    -4.064000000
