158
-3020.79030
C     0.492000000     0.556000000     1.215000000
H     1.043000000     0.861000000     2.101000000
C     0.475000000    -0.805000000     0.965000000
H     0.909000000    -1.564000000     1.609000000
C    -0.032000000    -1.190000000    -0.279000000
H    -0.162000000    -2.248000000    -0.462000000
C    -0.541000000    -0.284000000    -1.171000000
H    -0.940000000    -0.625000000    -2.123000000
C    -0.564000000     1.085000000    -0.881000000
H    -1.046000000     1.787000000    -1.556000000
C    -0.060000000     1.523000000     0.387000000
C    -0.037000000     3.064000000     0.703000000
O     0.632000000     3.423000000     1.652000000
O    -0.672000000     3.845000000     0.032000000
O     2.490000000    -6.432000000     2.364000000
H     2.280000000    -7.009000000     1.630000000
H     1.668000000    -5.982000000     2.557000000
O    -5.005000000    -4.331000000    -2.149000000
H    -5.705000000    -4.154000000    -2.778000000
H    -5.435000000    -4.809000000    -1.441000000
O     2.926000000     6.132000000     2.125000000
H     2.553000000     6.601000000     2.872000000
H     2.188000000     6.009000000     1.527000000
O    -3.660000000    -7.251000000    -0.634000000
H    -2.883000000    -7.543000000    -0.158000000
H    -3.314000000    -6.734000000    -1.362000000
O    -5.480000000    -2.274000000     1.815000000
H    -5.400000000    -1.957000000     0.915000000
H    -4.608000000    -2.154000000     2.190000000
O    -0.264000000    -2.358000000     3.586000000
H    -1.197000000    -2.164000000     3.499000000
H     0.112000000    -1.562000000     3.962000000
O     4.456000000    -4.523000000     1.006000000
H     5.254000000    -4.873000000     0.609000000
H     4.177000000    -5.203000000     1.620000000
O    -1.793000000     2.451000000    -3.922000000
H    -0.856000000     2.264000000    -3.864000000
H    -1.992000000     2.384000000    -4.856000000
O    -2.805000000    -3.252000000    -4.087000000
H    -3.641000000    -3.271000000    -3.621000000
H    -2.740000000    -2.359000000    -4.427000000
O     3.977000000     0.803000000     0.080000000
H     3.290000000     0.151000000    -0.052000000
H     3.514000000     1.577000000     0.402000000
O     5.499000000    -1.898000000    -0.033000000
H     5.128000000    -2.760000000     0.156000000
H     5.572000000    -1.476000000     0.823000000
O    -1.276000000     5.261000000     3.053000000
H    -0.786000000     4.651000000     2.501000000
H    -1.302000000     4.838000000     3.912000000
O     2.714000000     5.349000000     6.028000000
H     2.487000000     4.829000000     5.257000000
H     3.657000000     5.225000000     6.131000000
O    -2.160000000    -5.561000000    -2.182000000
H    -1.453000000    -5.442000000    -1.548000000
H    -2.628000000    -4.726000000    -2.178000000
O    -3.571000000    -0.309000000     3.485000000
H    -3.071000000     0.500000000     3.597000000
H    -3.418000000    -0.561000000     2.575000000
O     0.052000000    -5.338000000     2.751000000
H    -0.115000000    -5.511000000     3.677000000
H    -0.501000000    -4.585000000     2.544000000
O     3.902000000     4.997000000    -2.017000000
H     2.971000000     4.950000000    -2.233000000
H     4.156000000     5.891000000    -2.243000000
O     0.861000000    -0.343000000    -6.066000000
H     0.450000000    -1.052000000    -5.571000000
H     1.704000000    -0.702000000    -6.344000000
O    -3.329000000     6.631000000     1.509000000
H    -2.528000000     6.183000000     1.783000000
H    -3.266000000     6.671000000     0.555000000
O    -4.486000000    -1.734000000    -0.960000000
H    -4.617000000    -2.682000000    -0.984000000
H    -4.789000000    -1.429000000    -1.816000000
O     3.289000000     3.506000000     1.350000000
H     2.370000000     3.258000000     1.452000000
H     3.274000000     4.461000000     1.294000000
O     2.160000000    -2.332000000    -2.415000000
H     2.448000000    -3.160000000    -2.030000000
H     1.465000000    -2.580000000    -3.025000000
O    -0.755000000     5.845000000    -4.453000000
H    -1.043000000     5.383000000    -3.666000000
H    -1.086000000     5.313000000    -5.177000000
O     1.536000000     6.265000000    -3.069000000
H     1.851000000     7.016000000    -3.573000000
H     0.849000000     5.882000000    -3.614000000
O    -0.488000000     7.922000000     3.544000000
H     0.169000000     8.259000000     2.935000000
H    -0.879000000     7.177000000     3.087000000
O     3.986000000    -5.301000000    -3.190000000
H     3.367000000    -5.266000000    -2.461000000
H     3.457000000    -5.105000000    -3.963000000
O     0.550000000     8.774000000     1.182000000
H     0.284000000     8.019000000     0.657000000
H    -0.112000000     9.440000000     0.997000000
O     1.856000000    -2.921000000     5.549000000
H     1.496000000    -2.881000000     4.663000000
H     2.787000000    -3.103000000     5.421000000
O    -4.662000000     1.590000000    -0.626000000
H    -4.789000000     0.737000000    -0.210000000
H    -4.871000000     1.440000000    -1.548000000
O     3.589000000     1.661000000     5.018000000
H     3.723000000     2.492000000     4.562000000
H     2.651000000     1.490000000     4.934000000
O    -1.724000000     4.594000000    -2.243000000
H    -2.035000000     3.918000000    -2.846000000
H    -1.276000000     4.109000000    -1.550000000
O    -5.615000000    -0.806000000    -3.096000000
H    -6.278000000    -0.635000000    -3.765000000
H    -4.805000000    -0.456000000    -3.467000000
O    -0.305000000    -0.021000000     4.826000000
H    -0.969000000     0.509000000     4.385000000
H    -0.092000000     0.473000000     5.618000000
O     2.577000000    -4.589000000    -1.110000000
H     3.318000000    -4.365000000    -0.547000000
H     1.830000000    -4.642000000    -0.514000000
O    -0.533000000    -5.455000000    -0.222000000
H    -0.746000000    -5.286000000     0.696000000
H    -0.370000000    -6.397000000    -0.260000000
O     1.024000000     3.508000000     4.296000000
H     0.959000000     3.339000000     3.356000000
H     0.409000000     2.891000000     4.693000000
O    -1.040000000     8.453000000    -1.991000000
H    -0.187000000     8.730000000    -2.325000000
H    -1.159000000     7.570000000    -2.341000000
O    -3.773000000     6.149000000    -1.155000000
H    -3.024000000     5.875000000    -1.683000000
H    -4.510000000     6.149000000    -1.766000000
O     0.581000000     6.349000000    -0.136000000
H     0.634000000     6.115000000    -1.063000000
H     0.064000000     5.646000000     0.259000000
O     0.759000000     1.901000000    -4.483000000
H     1.207000000     1.232000000    -3.966000000
H     0.553000000     1.466000000    -5.310000000
O    -2.713000000    -1.266000000     0.935000000
H    -1.907000000    -0.971000000     0.511000000
H    -3.379000000    -1.206000000     0.250000000
O    -1.940000000    -3.200000000     5.741000000
H    -2.488000000    -2.576000000     6.215000000
H    -1.222000000    -2.672000000     5.391000000
O     6.045000000     3.101000000     1.917000000
H     5.401000000     3.012000000     1.215000000
H     5.761000000     3.874000000     2.406000000
O    -3.270000000    -0.015000000    -4.355000000
H    -3.593000000     0.347000000    -5.180000000
H    -2.717000000     0.677000000    -3.991000000
O    -3.266000000     3.277000000     1.186000000
H    -3.723000000     2.718000000     0.557000000
H    -2.512000000     3.615000000     0.703000000
O     2.162000000     0.379000000    -2.583000000
H     2.302000000    -0.508000000    -2.252000000
H     1.725000000     0.836000000    -1.864000000
O    -2.292000000     2.083000000     3.500000000
H    -2.784000000     2.462000000     4.228000000
H    -2.618000000     2.544000000     2.726000000
O    -0.027000000    -2.509000000    -4.191000000
H    -0.046000000    -3.052000000    -4.979000000
H    -0.820000000    -2.752000000    -3.714000000
