158
-2998.13244
C     1.406000000    -0.132000000    -0.504000000
H     2.401000000    -0.246000000    -0.925000000
C     0.598000000    -1.180000000    -0.308000000
H     0.953000000    -2.185000000    -0.524000000
C    -0.739000000    -1.004000000     0.093000000
H    -1.390000000    -1.869000000     0.101000000
C    -1.146000000     0.340000000     0.331000000
H    -2.182000000     0.490000000     0.621000000
C    -0.324000000     1.451000000     0.305000000
H    -0.674000000     2.442000000     0.584000000
C     1.019000000     1.239000000    -0.125000000
C     1.914000000     2.414000000    -0.324000000
O     2.851000000     2.245000000    -1.042000000
O     1.426000000     3.490000000    -0.035000000
O    -2.178000000    -4.141000000     1.299000000
H    -3.013000000    -4.593000000     1.414000000
H    -1.807000000    -4.521000000     0.502000000
O    -2.616000000    -6.664000000     3.737000000
H    -2.266000000    -7.475000000     4.106000000
H    -1.968000000    -5.998000000     3.966000000
O    -7.445000000    -0.743000000     0.334000000
H    -8.157000000    -0.977000000     0.929000000
H    -6.790000000    -1.429000000     0.462000000
O    -4.655000000    -0.410000000     1.974000000
H    -4.768000000    -1.014000000     2.708000000
H    -5.056000000     0.406000000     2.271000000
O     7.371000000     1.283000000     0.345000000
H     7.729000000     1.269000000    -0.543000000
H     6.426000000     1.195000000     0.224000000
O    -3.977000000     4.350000000     1.924000000
H    -4.670000000     4.593000000     2.538000000
H    -4.091000000     3.408000000     1.796000000
O    -2.515000000    -3.441000000    -2.757000000
H    -2.859000000    -3.555000000    -1.871000000
H    -2.485000000    -4.327000000    -3.118000000
O    -4.429000000     2.651000000    -2.644000000
H    -3.876000000     3.191000000    -2.079000000
H    -5.014000000     2.193000000    -2.039000000
O    -1.265000000     3.671000000    -2.209000000
H    -1.990000000     3.712000000    -1.586000000
H    -0.705000000     4.411000000    -1.973000000
O     1.179000000    -4.325000000    -2.663000000
H     1.880000000    -3.675000000    -2.700000000
H     0.507000000    -3.987000000    -3.256000000
O    -5.754000000    -2.055000000    -2.274000000
H    -5.770000000    -1.300000000    -2.862000000
H    -4.966000000    -1.931000000    -1.746000000
O    -4.547000000    -5.580000000     2.082000000
H    -5.154000000    -5.228000000     2.734000000
H    -3.985000000    -6.177000000     2.576000000
O     4.838000000    -0.522000000    -3.930000000
H     3.908000000    -0.747000000    -3.923000000
H     5.281000000    -1.327000000    -3.665000000
O     2.132000000     0.703000000     2.974000000
H     2.308000000    -0.177000000     2.640000000
H     1.243000000     0.652000000     3.327000000
O     4.954000000     1.814000000    -2.475000000
H     4.197000000     2.158000000    -1.999000000
H     4.632000000     1.014000000    -2.890000000
O     4.340000000     0.649000000     0.175000000
H     3.730000000     1.249000000    -0.254000000
H     3.824000000    -0.139000000     0.343000000
O     4.285000000    -3.773000000    -0.106000000
H     4.835000000    -4.316000000     0.459000000
H     3.882000000    -4.391000000    -0.715000000
O     0.071000000     6.153000000    -4.367000000
H    -0.470000000     5.384000000    -4.544000000
H     0.602000000     5.903000000    -3.610000000
O    -5.220000000    -2.075000000     4.055000000
H    -5.707000000    -2.788000000     3.641000000
H    -4.993000000    -2.413000000     4.922000000
O     7.622000000     1.289000000    -2.757000000
H     7.739000000     0.345000000    -2.862000000
H     6.698000000     1.392000000    -2.530000000
O    -0.659000000    -3.898000000    -5.000000000
H    -1.440000000    -3.481000000    -4.637000000
H    -0.556000000    -3.503000000    -5.865000000
O     1.699000000    -1.509000000    -3.504000000
H     1.204000000    -1.143000000    -4.237000000
H     1.433000000    -0.984000000    -2.749000000
O     1.764000000    -2.774000000     3.973000000
H     1.400000000    -3.604000000     3.667000000
H     2.092000000    -2.350000000     3.180000000
O     5.142000000     6.470000000     2.054000000
H     4.573000000     6.616000000     2.810000000
H     4.543000000     6.237000000     1.345000000
O    -3.327000000     4.189000000    -0.784000000
H    -3.851000000     4.980000000    -0.903000000
H    -3.281000000     4.071000000     0.164000000
O     1.073000000    -4.716000000     2.427000000
H     1.715000000    -5.377000000     2.169000000
H     0.348000000    -4.833000000     1.814000000
O     5.614000000     3.985000000    -0.620000000
H     4.956000000     3.290000000    -0.643000000
H     5.273000000     4.617000000     0.012000000
O     3.161000000    -5.948000000    -1.679000000
H     2.226000000    -5.932000000    -1.883000000
H     3.450000000    -6.820000000    -1.948000000
O     2.908000000     6.880000000    -2.593000000
H     3.627000000     7.237000000    -2.072000000
H     2.430000000     6.315000000    -1.985000000
O     1.594000000     1.311000000    -6.056000000
H     0.792000000     0.791000000    -6.002000000
H     1.622000000     1.795000000    -5.231000000
O    -1.069000000     4.967000000     3.386000000
H    -1.630000000     4.226000000     3.156000000
H    -0.199000000     4.584000000     3.494000000
O     2.966000000     5.563000000     0.603000000
H     2.387000000     6.283000000     0.855000000
H     2.382000000     4.811000000     0.502000000
O     1.285000000     2.572000000    -3.551000000
H     1.931000000     2.591000000    -2.845000000
H     0.452000000     2.765000000    -3.119000000
O    -2.874000000    -1.877000000    -5.109000000
H    -3.731000000    -1.452000000    -5.069000000
H    -2.764000000    -2.278000000    -4.247000000
O    -1.738000000    -1.801000000     3.113000000
H    -1.554000000    -2.729000000     3.259000000
H    -2.026000000    -1.754000000     2.201000000
O     5.725000000     3.204000000    -4.798000000
H     5.492000000     2.705000000    -4.015000000
H     5.337000000     4.068000000    -4.656000000
O     4.602000000     2.408000000     3.257000000
H     3.704000000     2.142000000     3.453000000
H     4.965000000     1.675000000     2.760000000
O    -1.219000000     6.419000000     0.602000000
H    -2.170000000     6.343000000     0.673000000
H    -0.909000000     6.404000000     1.507000000
O    -5.237000000     2.317000000     0.140000000
H    -5.614000000     1.526000000     0.525000000
H    -5.987000000     2.789000000    -0.220000000
O    -0.606000000    -5.002000000     4.665000000
H     0.077000000    -4.967000000     3.995000000
H    -0.406000000    -5.791000000     5.170000000
O     1.352000000     3.472000000     2.774000000
H     1.558000000     3.707000000     1.869000000
H     1.399000000     2.516000000     2.790000000
O     3.478000000    -1.926000000     1.914000000
H     4.332000000    -1.639000000     2.239000000
H     3.682000000    -2.626000000     1.294000000
O    -1.368000000     0.754000000    -2.703000000
H    -1.064000000     0.368000000    -1.881000000
H    -1.822000000     1.554000000    -2.439000000
O     0.545000000     5.641000000    -1.491000000
H     0.117000000     6.092000000    -0.763000000
H     1.072000000     4.960000000    -1.073000000
O     5.811000000    -2.651000000    -2.196000000
H     5.403000000    -2.720000000    -1.333000000
H     5.890000000    -3.557000000    -2.496000000
O    -3.999000000    -1.949000000    -0.139000000
H    -4.175000000    -1.230000000     0.468000000
H    -3.467000000    -2.565000000     0.366000000
O    -0.222000000     0.328000000     3.811000000
H    -0.902000000     0.938000000     4.098000000
H    -0.705000000    -0.416000000     3.451000000
O    -0.229000000    -5.344000000    -0.297000000
H     0.130000000    -4.879000000    -1.054000000
H    -0.587000000    -6.154000000    -0.661000000
