158
-3071.72434
C    -0.565000000     1.188000000    -0.648000000
H    -0.893000000     2.142000000    -1.051000000
C     0.145000000     1.171000000     0.549000000
H     0.384000000     2.097000000     1.065000000
C     0.649000000    -0.019000000     1.041000000
H     1.226000000    -0.002000000     1.969000000
C     0.419000000    -1.164000000     0.320000000
H     0.735000000    -2.102000000     0.768000000
C    -0.286000000    -1.149000000    -0.883000000
H    -0.486000000    -2.100000000    -1.370000000
C    -0.821000000     0.010000000    -1.368000000
C    -1.696000000     0.026000000    -2.578000000
O    -2.127000000    -1.021000000    -2.991000000
O    -2.027000000     1.143000000    -3.089000000
O    -0.231000000     6.868000000    -0.818000000
H    -0.620000000     7.643000000    -1.223000000
H    -0.454000000     6.151000000    -1.412000000
O    -3.955000000     2.115000000    -6.300000000
H    -4.866000000     2.020000000    -6.577000000
H    -4.006000000     2.259000000    -5.355000000
O    -0.257000000     2.204000000     3.589000000
H    -1.211000000     2.179000000     3.512000000
H    -0.055000000     3.123000000     3.762000000
O     1.592000000     2.586000000     7.281000000
H     2.211000000     2.442000000     7.997000000
H     1.534000000     1.739000000     6.840000000
O    -1.157000000    -0.305000000     5.664000000
H    -1.440000000     0.553000000     5.348000000
H    -1.334000000    -0.283000000     6.605000000
O     5.491000000     0.694000000     3.033000000
H     5.581000000     1.123000000     3.884000000
H     4.594000000     0.890000000     2.760000000
O     0.665000000    -4.048000000    -3.676000000
H     0.280000000    -3.302000000    -4.136000000
H     1.440000000    -4.272000000    -4.191000000
O    -1.948000000     0.338000000    -5.800000000
H    -2.692000000     0.803000000    -6.183000000
H    -2.057000000     0.447000000    -4.856000000
O     2.491000000    -0.667000000    -5.368000000
H     1.713000000    -0.872000000    -4.850000000
H     2.985000000    -0.053000000    -4.825000000
O     4.607000000    -2.304000000    -2.560000000
H     3.766000000    -1.853000000    -2.480000000
H     5.158000000    -1.697000000    -3.054000000
O    -1.727000000     3.844000000     1.678000000
H    -1.905000000     4.778000000     1.786000000
H    -0.804000000     3.803000000     1.425000000
O    -3.503000000    -3.725000000    -6.954000000
H    -3.462000000    -3.500000000    -6.024000000
H    -3.003000000    -4.538000000    -7.026000000
O    -0.030000000    -1.761000000    -4.765000000
H    -0.288000000    -1.857000000    -5.682000000
H    -0.843000000    -1.539000000    -4.310000000
O    -0.911000000    -3.041000000     5.589000000
H    -1.200000000    -2.134000000     5.693000000
H    -1.708000000    -3.523000000     5.369000000
O    -0.671000000     2.981000000    -4.616000000
H    -0.173000000     2.827000000    -5.419000000
H    -1.117000000     2.151000000    -4.448000000
O    -4.759000000    -0.850000000     1.459000000
H    -3.897000000    -0.434000000     1.451000000
H    -4.623000000    -1.694000000     1.028000000
O     0.215000000    -7.037000000     0.324000000
H    -0.561000000    -6.759000000     0.810000000
H     0.516000000    -6.245000000    -0.120000000
O    -3.761000000     3.485000000    -0.789000000
H    -2.961000000     3.227000000    -0.331000000
H    -4.333000000     3.823000000    -0.099000000
O     0.550000000    -4.349000000     2.961000000
H     0.550000000    -3.786000000     3.735000000
H    -0.174000000    -4.022000000     2.426000000
O    -4.511000000    -4.163000000    -2.754000000
H    -4.058000000    -3.939000000    -3.568000000
H    -5.186000000    -3.491000000    -2.663000000
O     3.791000000     4.310000000     5.467000000
H     3.144000000     3.621000000     5.309000000
H     3.629000000     4.952000000     4.776000000
O    -5.718000000    -0.441000000    -5.199000000
H    -5.976000000     0.383000000    -5.612000000
H    -6.387000000    -0.596000000    -4.532000000
O     4.900000000    -2.858000000     1.923000000
H     4.029000000    -3.254000000     1.894000000
H     4.893000000    -2.212000000     1.216000000
O    -1.805000000    -5.297000000    -3.675000000
H    -1.634000000    -6.110000000    -3.199000000
H    -1.001000000    -4.787000000    -3.575000000
O    -4.824000000    -0.312000000    -2.138000000
H    -5.102000000     0.584000000    -2.326000000
H    -3.992000000    -0.407000000    -2.601000000
O    -4.235000000     2.628000000    -3.468000000
H    -3.399000000     2.210000000    -3.262000000
H    -4.419000000     3.183000000    -2.709000000
O     2.561000000    -3.963000000     1.045000000
H     1.961000000    -4.344000000     1.686000000
H     2.305000000    -4.360000000     0.213000000
O     3.038000000    -2.102000000     7.001000000
H     2.633000000    -2.781000000     6.461000000
H     3.689000000    -2.569000000     7.525000000
O    -3.231000000     1.531000000     4.445000000
H    -4.150000000     1.264000000     4.476000000
H    -2.893000000     1.131000000     3.643000000
O    -1.318000000     5.260000000    -2.956000000
H    -2.262000000     5.324000000    -2.810000000
H    -1.189000000     4.381000000    -3.312000000
O     2.494000000     3.579000000    -0.456000000
H     2.131000000     3.055000000    -1.170000000
H     2.940000000     2.944000000     0.104000000
O    -0.899000000    -1.470000000    -7.404000000
H    -1.371000000    -0.851000000    -6.846000000
H    -1.445000000    -1.550000000    -8.186000000
O    -2.046000000    -3.388000000     1.815000000
H    -2.586000000    -3.172000000     1.055000000
H    -2.017000000    -4.345000000     1.824000000
O     2.582000000    -0.582000000    -2.175000000
H     2.373000000     0.349000000    -2.254000000
H     1.767000000    -0.986000000    -1.877000000
O    -3.259000000    -2.976000000    -0.505000000
H    -2.985000000    -2.258000000    -1.076000000
H    -3.542000000    -3.665000000    -1.106000000
O     1.482000000     0.017000000     6.273000000
H     2.054000000    -0.712000000     6.516000000
H     0.684000000    -0.402000000     5.952000000
O     1.510000000    -5.365000000    -1.324000000
H     1.135000000    -4.828000000    -2.022000000
H     2.091000000    -5.975000000    -1.778000000
O     0.665000000     4.969000000     1.070000000
H     1.248000000     4.486000000     0.484000000
H     0.379000000     5.724000000     0.554000000
O     4.935000000    -0.872000000     0.076000000
H     5.790000000    -0.531000000    -0.184000000
H     4.683000000    -1.457000000    -0.639000000
O    -0.859000000     2.907000000    -7.482000000
H    -1.106000000     2.931000000    -8.406000000
H    -1.645000000     3.192000000    -7.016000000
O     1.429000000     2.336000000    -2.980000000
H     0.566000000     2.558000000    -3.329000000
H     2.046000000     2.693000000    -3.619000000
O     0.438000000     4.694000000     3.951000000
H     0.587000000     4.755000000     3.008000000
H     0.553000000     5.589000000     4.270000000
O    -4.064000000     5.470000000    -4.283000000
H    -4.257000000     4.535000000    -4.342000000
H    -4.817000000     5.842000000    -3.824000000
O    -1.990000000    -0.480000000     2.250000000
H    -1.680000000    -1.364000000     2.055000000
H    -1.348000000     0.096000000     1.835000000
O     2.414000000     2.044000000     4.335000000
H     1.635000000     2.239000000     3.815000000
H     2.133000000     1.358000000     4.940000000
O    -6.601000000    -2.439000000    -2.628000000
H    -6.186000000    -1.665000000    -2.248000000
H    -7.467000000    -2.137000000    -2.903000000
O    -3.758000000    -2.247000000    -4.782000000
H    -3.223000000    -1.748000000    -4.165000000
H    -4.588000000    -1.772000000    -4.820000000
O     4.043000000     1.535000000     0.760000000
H     4.263000000     0.637000000     0.509000000
H     4.802000000     2.052000000     0.492000000
