158
-3019.63905
C     1.127000000     0.253000000     0.845000000
H     1.987000000     0.283000000     1.508000000
C     1.185000000    -0.419000000    -0.376000000
H     2.056000000    -0.879000000    -0.836000000
C     0.060000000    -0.540000000    -1.104000000
H     0.199000000    -0.983000000    -2.059000000
C    -1.173000000    -0.104000000    -0.579000000
H    -2.104000000    -0.170000000    -1.136000000
C    -1.215000000     0.523000000     0.649000000
H    -2.199000000     0.796000000     1.021000000
C    -0.099000000     0.776000000     1.331000000
C    -0.024000000     1.679000000     2.598000000
O     0.948000000     1.695000000     3.328000000
O    -0.813000000     2.611000000     2.700000000
O    -4.303000000    -2.535000000    -0.836000000
H    -4.315000000    -1.641000000    -1.179000000
H    -4.572000000    -3.079000000    -1.576000000
O     4.590000000     4.709000000     3.518000000
H     4.017000000     4.347000000     4.195000000
H     5.313000000     5.104000000     4.004000000
O    -2.311000000     2.764000000    -2.132000000
H    -2.370000000     3.551000000    -1.590000000
H    -2.792000000     2.098000000    -1.640000000
O    -0.944000000     1.669000000    -6.889000000
H    -1.562000000     2.300000000    -6.519000000
H    -1.467000000     1.154000000    -7.503000000
O     1.829000000    -3.652000000     1.523000000
H     1.340000000    -4.292000000     2.039000000
H     2.541000000    -3.373000000     2.099000000
O    -5.153000000     0.668000000    -4.267000000
H    -4.324000000     1.115000000    -4.434000000
H    -5.154000000     0.507000000    -3.324000000
O    -4.026000000     3.162000000     0.071000000
H    -4.734000000     3.803000000     0.135000000
H    -3.264000000     3.610000000     0.439000000
O    -2.140000000    -3.675000000    -2.315000000
H    -2.541000000    -3.849000000    -1.463000000
H    -1.533000000    -4.403000000    -2.447000000
O     4.548000000    -0.904000000     1.537000000
H     4.164000000    -0.172000000     1.054000000
H     5.245000000    -1.228000000     0.967000000
O     6.750000000    -1.580000000    -0.577000000
H     7.144000000    -1.812000000     0.264000000
H     6.287000000    -2.372000000    -0.851000000
O     1.363000000     4.384000000     2.587000000
H     0.772000000     3.640000000     2.466000000
H     1.408000000     4.503000000     3.535000000
O     3.050000000     2.724000000     5.118000000
H     3.404000000     1.973000000     5.593000000
H     2.444000000     2.342000000     4.483000000
O     1.240000000    -4.520000000    -1.022000000
H     0.460000000    -5.041000000    -1.214000000
H     1.127000000    -4.246000000    -0.112000000
O    -3.344000000     0.423000000     5.992000000
H    -3.109000000     0.048000000     5.143000000
H    -4.301000000     0.401000000     6.007000000
O    -2.221000000    -4.524000000     1.711000000
H    -1.645000000    -3.773000000     1.574000000
H    -3.105000000    -4.159000000     1.671000000
O     1.126000000    -0.785000000     6.124000000
H     0.675000000    -1.168000000     5.371000000
H     1.843000000    -0.279000000     5.742000000
O     3.682000000     1.859000000    -2.777000000
H     3.412000000     0.973000000    -3.019000000
H     2.879000000     2.377000000    -2.829000000
O     2.700000000    -5.192000000    -4.823000000
H     3.654000000    -5.250000000    -4.778000000
H     2.391000000    -5.999000000    -4.412000000
O     0.413000000    -2.802000000    -6.186000000
H     0.818000000    -2.849000000    -5.319000000
H    -0.446000000    -2.411000000    -6.028000000
O    -0.113000000     3.207000000     5.564000000
H    -1.037000000     3.396000000     5.398000000
H     0.189000000     2.771000000     4.767000000
O     5.233000000    -0.845000000    -2.764000000
H     4.377000000    -0.930000000    -2.345000000
H     5.816000000    -0.558000000    -2.062000000
O    -0.554000000    -2.426000000     1.370000000
H     0.301000000    -2.837000000     1.498000000
H    -0.387000000    -1.711000000     0.756000000
O     3.746000000     2.851000000     1.822000000
H     2.955000000     3.179000000     2.250000000
H     4.460000000     3.336000000     2.235000000
O     1.370000000    -2.912000000    -3.490000000
H     2.123000000    -3.441000000    -3.750000000
H     1.067000000    -3.310000000    -2.673000000
O    -1.117000000     6.212000000     3.689000000
H    -1.311000000     5.274000000     3.676000000
H    -0.830000000     6.409000000     2.798000000
O     3.776000000    -2.714000000     3.083000000
H     4.312000000    -2.837000000     3.866000000
H     4.270000000    -2.091000000     2.550000000
O    -5.321000000    -0.340000000     1.523000000
H    -5.958000000    -0.484000000     0.823000000
H    -5.591000000     0.485000000     1.927000000
O     5.050000000     0.709000000     5.239000000
H     4.487000000     0.094000000     4.768000000
H     5.678000000     1.010000000     4.583000000
O     0.281000000     5.361000000    -1.191000000
H     0.734000000     4.530000000    -1.050000000
H    -0.614000000     5.110000000    -1.421000000
O    -0.201000000     2.106000000    -3.635000000
H    -1.080000000     2.373000000    -3.368000000
H    -0.298000000     1.846000000    -4.551000000
O    -0.120000000    -1.862000000     3.984000000
H    -0.360000000    -1.582000000     3.100000000
H    -0.543000000    -2.714000000     4.088000000
O     1.135000000     2.219000000     7.462000000
H     1.901000000     1.766000000     7.109000000
H     0.687000000     2.569000000     6.692000000
O     2.733000000     0.045000000     3.952000000
H     2.031000000     0.594000000     3.602000000
H     2.700000000    -0.752000000     3.423000000
O     4.245000000     1.216000000    -0.274000000
H     3.772000000     1.430000000    -1.078000000
H     4.018000000     1.921000000     0.333000000
O    -0.449000000     6.912000000     1.160000000
H     0.071000000     7.705000000     1.034000000
H    -0.287000000     6.392000000     0.373000000
O     2.912000000     5.936000000     0.854000000
H     3.465000000     5.307000000     0.391000000
H     2.403000000     5.403000000     1.465000000
O     0.945000000     2.662000000    -1.325000000
H     0.916000000     1.879000000    -0.775000000
H     0.474000000     2.414000000    -2.121000000
O    -3.258000000    -1.091000000     3.644000000
H    -3.100000000    -1.991000000     3.929000000
H    -3.857000000    -1.176000000     2.902000000
O     1.338000000     5.738000000     6.335000000
H     2.111000000     5.336000000     6.730000000
H     0.725000000     5.012000000     6.216000000
O     6.346000000     1.198000000     2.960000000
H     5.598000000     0.790000000     2.523000000
H     6.509000000     1.997000000     2.459000000
O    -0.776000000    -6.860000000    -2.047000000
H    -1.037000000    -6.760000000    -1.131000000
H    -1.553000000    -7.215000000    -2.479000000
O    -2.043000000     4.427000000     1.353000000
H    -1.593000000     5.265000000     1.462000000
H    -1.497000000     3.800000000     1.827000000
O     2.021000000    -0.138000000    -3.751000000
H     1.140000000     0.206000000    -3.602000000
H     1.904000000    -1.087000000    -3.790000000
O    -4.579000000     0.654000000    -1.371000000
H    -4.412000000     1.248000000    -0.640000000
H    -5.387000000     0.201000000    -1.132000000
O    -2.640000000     3.550000000     4.329000000
H    -3.376000000     3.055000000     4.690000000
H    -2.250000000     2.962000000     3.683000000
O     4.893000000     0.755000000    -5.016000000
H     4.890000000     0.035000000    -5.646000000
H     4.721000000     0.337000000    -4.172000000
O     1.671000000     0.763000000    -6.470000000
H     0.777000000     1.067000000    -6.311000000
H     2.003000000     0.533000000    -5.602000000
O    -2.255000000    -2.445000000    -5.119000000
H    -3.143000000    -2.213000000    -5.391000000
H    -2.340000000    -2.676000000    -4.194000000
