158
-3030.16726
C     1.311000000     0.645000000    -0.512000000
H     2.228000000     1.100000000    -0.878000000
C     1.108000000    -0.714000000    -0.274000000
H     1.862000000    -1.378000000    -0.687000000
C    -0.093000000    -1.233000000     0.133000000
H    -0.273000000    -2.286000000     0.221000000
C    -1.055000000    -0.348000000     0.602000000
H    -1.944000000    -0.820000000     1.012000000
C    -0.912000000     1.013000000     0.562000000
H    -1.737000000     1.664000000     0.839000000
C     0.283000000     1.520000000     0.001000000
C     0.360000000     3.046000000    -0.144000000
O     1.361000000     3.580000000    -0.649000000
O    -0.584000000     3.719000000     0.214000000
O    -5.506000000    -3.251000000     1.318000000
H    -5.435000000    -3.257000000     2.272000000
H    -4.659000000    -3.575000000     1.012000000
O    -4.945000000     4.072000000    -1.855000000
H    -4.554000000     3.634000000    -1.099000000
H    -4.812000000     5.005000000    -1.687000000
O     5.099000000     4.715000000     2.012000000
H     4.799000000     4.204000000     1.259000000
H     4.919000000     4.156000000     2.767000000
O    -5.098000000     3.688000000     3.099000000
H    -5.812000000     3.605000000     2.467000000
H    -5.194000000     4.572000000     3.453000000
O    -3.639000000    -4.165000000    -1.725000000
H    -4.563000000    -3.989000000    -1.900000000
H    -3.352000000    -4.703000000    -2.463000000
O    -4.083000000     1.150000000    -0.686000000
H    -3.941000000     1.941000000    -0.166000000
H    -4.455000000     0.521000000    -0.068000000
O    -3.279000000     3.544000000     0.272000000
H    -3.512000000     4.408000000     0.612000000
H    -2.337000000     3.473000000     0.425000000
O     0.489000000    -3.806000000    -2.983000000
H     0.164000000    -4.174000000    -3.805000000
H    -0.225000000    -3.251000000    -2.670000000
O     5.895000000    -0.885000000     1.177000000
H     4.997000000    -1.214000000     1.185000000
H     6.438000000    -1.673000000     1.142000000
O    -4.969000000    -4.524000000     3.998000000
H    -4.808000000    -5.466000000     4.053000000
H    -4.113000000    -4.125000000     4.155000000
O     6.208000000    -0.552000000    -1.912000000
H     5.385000000    -1.026000000    -2.031000000
H     6.265000000    -0.405000000    -0.968000000
O    -0.038000000     2.618000000     3.813000000
H     0.273000000     1.801000000     4.203000000
H    -0.961000000     2.454000000     3.617000000
O    -4.382000000     0.184000000    -3.225000000
H    -3.490000000     0.367000000    -3.522000000
H    -4.487000000     0.721000000    -2.439000000
O     6.731000000     2.391000000    -1.976000000
H     7.131000000     2.827000000    -2.729000000
H     6.603000000     1.487000000    -2.263000000
O     4.438000000     3.369000000    -0.166000000
H     3.767000000     3.638000000    -0.793000000
H     5.171000000     3.079000000    -0.709000000
O     1.553000000    -3.853000000     1.924000000
H     2.309000000    -4.429000000     2.034000000
H     1.169000000    -4.118000000     1.088000000
O     0.234000000     4.578000000    -4.089000000
H    -0.723000000     4.560000000    -4.105000000
H     0.450000000     5.328000000    -3.535000000
O     1.165000000    -7.170000000     2.173000000
H     1.854000000    -6.527000000     2.005000000
H     1.064000000    -7.636000000     1.343000000
O     1.766000000    -0.733000000    -3.731000000
H     1.201000000    -0.002000000    -3.481000000
H     2.050000000    -1.112000000    -2.899000000
O     0.559000000    -0.263000000     3.414000000
H     0.249000000    -1.151000000     3.588000000
H     0.454000000    -0.153000000     2.469000000
O    -4.406000000     6.141000000     0.503000000
H    -4.512000000     6.370000000    -0.420000000
H    -5.269000000     5.827000000     0.773000000
O    -2.255000000    -2.588000000     3.129000000
H    -1.615000000    -2.556000000     3.840000000
H    -1.820000000    -3.089000000     2.438000000
O     2.015000000     6.074000000    -0.054000000
H     2.232000000     6.106000000     0.878000000
H     1.639000000     5.204000000    -0.183000000
O     0.870000000    -5.391000000    -0.827000000
H     1.338000000    -4.730000000    -1.337000000
H     0.823000000    -6.151000000    -1.406000000
O     0.700000000     6.629000000    -2.237000000
H    -0.164000000     6.380000000    -1.910000000
H     1.291000000     6.463000000    -1.503000000
O     3.716000000     1.689000000    -5.623000000
H     3.121000000     1.011000000    -5.943000000
H     3.226000000     2.129000000    -4.928000000
O    -2.400000000     6.504000000     3.359000000
H    -3.279000000     6.137000000     3.455000000
H    -1.842000000     5.746000000     3.187000000
O     1.593000000     6.876000000     2.410000000
H     1.032000000     7.616000000     2.179000000
H     0.984000000     6.189000000     2.681000000
O     2.087000000     2.822000000    -3.264000000
H     1.563000000     3.421000000    -3.797000000
H     1.708000000     2.888000000    -2.388000000
O    -1.684000000    -2.368000000    -2.295000000
H    -1.936000000    -1.750000000    -1.608000000
H    -2.284000000    -3.106000000    -2.185000000
O    -3.627000000    -0.247000000     3.518000000
H    -3.165000000    -1.048000000     3.269000000
H    -3.984000000    -0.435000000     4.386000000
O    -2.455000000     3.933000000    -3.557000000
H    -3.355000000     3.826000000    -3.250000000
H    -2.056000000     4.532000000    -2.926000000
O     0.198000000    -2.894000000     4.357000000
H     0.502000000    -3.301000000     5.167000000
H     0.789000000    -3.230000000     3.683000000
O     3.240000000     0.179000000     4.021000000
H     2.366000000     0.362000000     3.675000000
H     3.093000000    -0.462000000     4.717000000
O     4.266000000     6.344000000    -1.478000000
H     4.081000000     7.039000000    -2.109000000
H     3.453000000     6.249000000    -0.981000000
O    -0.996000000    -5.643000000     2.790000000
H    -0.135000000    -5.532000000     2.386000000
H    -1.615000000    -5.373000000     2.112000000
O    -2.026000000     7.653000000     0.075000000
H    -2.810000000     7.252000000     0.451000000
H    -1.462000000     7.830000000     0.828000000
O    -1.421000000    -5.012000000     5.517000000
H    -1.515000000    -4.954000000     4.567000000
H    -1.662000000    -5.914000000     5.728000000
O    -2.834000000    -5.638000000    -3.816000000
H    -3.678000000    -5.811000000    -4.232000000
H    -2.351000000    -6.460000000    -3.903000000
O    -0.310000000     4.826000000     2.562000000
H    -0.398000000     4.591000000     1.638000000
H    -0.031000000     4.017000000     2.990000000
O     3.483000000    -1.835000000     1.798000000
H     3.475000000    -1.156000000     2.473000000
H     2.611000000    -2.227000000     1.842000000
O    -1.778000000     0.859000000    -2.322000000
H    -2.378000000     1.428000000    -1.839000000
H    -1.006000000     0.794000000    -1.759000000
O    -1.677000000     5.485000000    -1.606000000
H    -1.907000000     6.193000000    -1.004000000
H    -1.327000000     4.795000000    -1.041000000
O     4.276000000    -2.513000000    -2.035000000
H     3.694000000    -2.721000000    -2.765000000
H     4.177000000    -3.251000000    -1.433000000
O    -5.509000000    -0.418000000     1.618000000
H    -4.930000000    -0.407000000     2.380000000
H    -5.495000000    -1.328000000     1.320000000
O    -2.828000000     2.356000000     3.801000000
H    -3.585000000     2.925000000     3.664000000
H    -3.092000000     1.513000000     3.433000000
O    -1.798000000    -1.266000000    -4.871000000
H    -1.145000000    -1.738000000    -5.388000000
H    -1.858000000    -1.759000000    -4.053000000
O    -3.020000000    -4.574000000     0.854000000
H    -2.908000000    -4.691000000    -0.090000000
H    -3.539000000    -5.331000000     1.128000000
