158
-3029.66809
C    -1.056000000     0.965000000    -0.055000000
H    -1.707000000     1.826000000    -0.180000000
C     0.113000000     1.090000000     0.601000000
H     0.279000000     2.053000000     1.078000000
C     0.998000000     0.048000000     0.791000000
H     1.840000000     0.082000000     1.468000000
C     0.686000000    -1.161000000     0.110000000
H     1.261000000    -2.074000000     0.243000000
C    -0.402000000    -1.226000000    -0.743000000
H    -0.488000000    -2.156000000    -1.298000000
C    -1.297000000    -0.111000000    -0.906000000
C    -2.425000000    -0.237000000    -1.819000000
O    -2.666000000    -1.290000000    -2.460000000
O    -3.310000000     0.601000000    -1.830000000
O     2.447000000    -7.218000000    -0.245000000
H     1.762000000    -7.224000000    -0.914000000
H     2.193000000    -6.514000000     0.352000000
O     5.387000000     2.863000000     3.530000000
H     5.396000000     3.648000000     4.079000000
H     4.547000000     2.446000000     3.723000000
O     4.784000000    -3.960000000     2.918000000
H     5.098000000    -3.673000000     2.060000000
H     4.852000000    -3.181000000     3.470000000
O     1.054000000    -4.837000000    -2.085000000
H     1.470000000    -5.049000000    -2.921000000
H     1.702000000    -4.306000000    -1.623000000
O    -2.766000000     2.888000000    -4.625000000
H    -2.938000000     2.121000000    -5.171000000
H    -3.484000000     2.897000000    -3.992000000
O     3.514000000     0.053000000    -3.272000000
H     4.178000000    -0.624000000    -3.145000000
H     3.708000000     0.708000000    -2.601000000
O    -4.788000000     3.059000000     2.676000000
H    -4.207000000     3.544000000     2.090000000
H    -5.144000000     3.725000000     3.264000000
O     5.566000000    -2.611000000     0.191000000
H     6.201000000    -2.105000000     0.698000000
H     6.025000000    -3.423000000    -0.027000000
O    -1.647000000     3.082000000     2.483000000
H    -1.009000000     3.161000000     1.773000000
H    -1.563000000     2.177000000     2.781000000
O    -4.012000000    -3.489000000    -3.639000000
H    -4.009000000    -2.553000000    -3.435000000
H    -3.182000000    -3.637000000    -4.092000000
O    -0.355000000    -0.738000000    -4.280000000
H     0.203000000     0.032000000    -4.389000000
H    -0.482000000    -0.809000000    -3.334000000
O    -0.672000000     3.425000000    -2.740000000
H    -1.502000000     3.317000000    -3.206000000
H    -0.926000000     3.671000000    -1.851000000
O    -3.673000000    -0.906000000     1.698000000
H    -4.048000000    -0.532000000     0.901000000
H    -2.982000000    -0.292000000     1.948000000
O    -6.200000000     2.628000000    -0.706000000
H    -7.021000000     2.154000000    -0.836000000
H    -6.415000000     3.311000000    -0.071000000
O    -4.043000000     5.285000000     0.589000000
H    -3.294000000     5.202000000     1.180000000
H    -3.699000000     5.037000000    -0.269000000
O     1.194000000    -3.759000000    -4.795000000
H     1.314000000    -2.813000000    -4.877000000
H     1.608000000    -4.122000000    -5.579000000
O    -0.029000000    -2.570000000     3.261000000
H    -0.762000000    -2.344000000     3.833000000
H    -0.422000000    -2.664000000     2.393000000
O     7.246000000     1.119000000     0.507000000
H     6.308000000     1.219000000     0.348000000
H     7.639000000     1.126000000    -0.366000000
O    -4.307000000     1.012000000    -6.403000000
H    -4.840000000     1.801000000    -6.502000000
H    -4.775000000     0.487000000    -5.754000000
O    -2.844000000     5.261000000     3.711000000
H    -2.172000000     5.342000000     4.388000000
H    -2.433000000     4.729000000     3.030000000
O     3.565000000     4.141000000     6.181000000
H     4.518000000     4.059000000     6.190000000
H     3.267000000     3.413000000     5.636000000
O     2.355000000    -1.149000000     4.309000000
H     2.161000000    -1.805000000     4.979000000
H     1.502000000    -0.929000000     3.935000000
O     5.988000000    -1.610000000    -2.615000000
H     6.467000000    -2.417000000    -2.806000000
H     5.911000000    -1.598000000    -1.661000000
O    -0.142000000    -5.251000000     0.905000000
H    -0.423000000    -5.892000000     0.252000000
H    -0.681000000    -4.479000000     0.730000000
O    -1.515000000    -5.183000000    -2.008000000
H    -1.992000000    -4.368000000    -1.854000000
H    -0.593000000    -4.937000000    -1.942000000
O    -5.326000000     0.022000000    -0.142000000
H    -5.919000000     0.723000000     0.127000000
H    -4.818000000     0.400000000    -0.860000000
O    -3.532000000     3.423000000    -1.749000000
H    -3.537000000     2.466000000    -1.764000000
H    -4.457000000     3.667000000    -1.748000000
O     2.177000000    -4.149000000     1.254000000
H     2.358000000    -3.592000000     2.012000000
H     1.482000000    -4.737000000     1.550000000
O     7.600000000    -1.866000000     2.070000000
H     7.297000000    -0.988000000     2.304000000
H     7.897000000    -2.245000000     2.897000000
O    -1.766000000    -3.003000000    -5.104000000
H    -1.347000000    -2.236000000    -4.714000000
H    -1.038000000    -3.558000000    -5.385000000
O    -0.024000000     2.742000000     4.966000000
H     0.520000000     2.514000000     5.719000000
H    -0.019000000     1.956000000     4.420000000
O     2.037000000     3.700000000     0.259000000
H     2.140000000     3.117000000    -0.493000000
H     2.911000000     4.065000000     0.401000000
O    -1.494000000     0.290000000    -6.653000000
H    -1.336000000    -0.062000000    -5.777000000
H    -2.358000000     0.698000000    -6.595000000
O     5.116000000    -1.316000000     4.386000000
H     4.197000000    -1.092000000     4.531000000
H     5.447000000    -0.616000000     3.823000000
O    -2.197000000    -3.329000000     1.376000000
H    -2.819000000    -2.924000000     0.772000000
H    -2.710000000    -3.988000000     1.843000000
O     2.432000000     2.011000000    -1.791000000
H     2.392000000     2.887000000    -2.176000000
H     1.908000000     1.468000000    -2.380000000
O    -3.794000000    -3.358000000    -0.891000000
H    -3.470000000    -2.506000000    -1.185000000
H    -3.995000000    -3.829000000    -1.699000000
O     3.332000000    -3.462000000    -1.035000000
H     2.760000000    -3.647000000    -0.291000000
H     4.001000000    -2.875000000    -0.682000000
O    -0.682000000     4.316000000     0.143000000
H     0.233000000     4.039000000     0.183000000
H    -0.648000000     5.268000000     0.238000000
O     4.985000000    -5.079000000    -2.603000000
H     4.393000000    -4.522000000    -2.099000000
H     5.282000000    -4.523000000    -3.324000000
O     6.663000000     0.591000000     3.056000000
H     6.862000000     0.766000000     2.136000000
H     6.384000000     1.438000000     3.405000000
O     4.331000000     1.375000000     0.064000000
H     4.344000000     2.211000000     0.531000000
H     3.566000000     1.433000000    -0.508000000
O    -5.997000000     4.319000000    -3.536000000
H    -6.761000000     4.587000000    -4.046000000
H    -6.296000000     3.557000000    -3.040000000
O    -0.140000000     0.296000000     3.449000000
H    -0.298000000     0.408000000     2.512000000
H    -0.899000000    -0.196000000     3.763000000
O     3.005000000     2.048000000     4.346000000
H     2.569000000     1.820000000     3.525000000
H     2.457000000     1.656000000     5.026000000
O    -7.185000000    -1.795000000    -0.715000000
H    -6.428000000    -1.292000000    -0.413000000
H    -7.892000000    -1.543000000    -0.121000000
O    -4.626000000    -0.466000000    -4.260000000
H    -3.977000000    -0.282000000    -3.582000000
H    -5.403000000    -0.749000000    -3.778000000
O     5.131000000     4.032000000     1.082000000
H     5.463000000     3.352000000     1.669000000
H     5.916000000     4.413000000     0.689000000
