158
-3012.08159
C     0.178000000    -0.520000000     1.436000000
H     0.383000000    -0.673000000     2.493000000
C     1.125000000     0.049000000     0.589000000
H     2.127000000     0.309000000     0.921000000
C     0.847000000     0.471000000    -0.723000000
H     1.519000000     1.078000000    -1.380000000
C    -0.426000000     0.361000000    -1.234000000
H    -0.692000000     0.659000000    -2.245000000
C    -1.365000000    -0.147000000    -0.435000000
H    -2.391000000    -0.167000000    -0.795000000
C    -1.089000000    -0.708000000     0.838000000
C    -2.143000000    -1.279000000     1.677000000
O    -1.937000000    -1.833000000     2.707000000
O    -3.286000000    -1.147000000     1.388000000
O    -5.468000000    -0.805000000    -0.007000000
H    -4.599000000    -1.024000000     0.328000000
H    -5.601000000     0.108000000     0.248000000
O    -7.467000000    -2.622000000     0.199000000
H    -7.737000000    -2.423000000     1.096000000
H    -6.839000000    -1.934000000    -0.020000000
O    -2.452000000    -3.745000000     4.391000000
H    -2.405000000    -3.290000000     3.550000000
H    -3.238000000    -3.395000000     4.809000000
O    -1.302000000     0.332000000     4.504000000
H    -1.421000000    -0.092000000     5.354000000
H    -1.390000000    -0.377000000     3.868000000
O     6.870000000    -0.380000000     2.927000000
H     7.251000000    -0.451000000     2.052000000
H     5.960000000    -0.125000000     2.772000000
O     0.633000000    -2.578000000    -0.938000000
H     0.453000000    -1.650000000    -0.787000000
H    -0.208000000    -2.944000000    -1.213000000
O    -1.513000000     3.246000000    -2.789000000
H    -1.718000000     2.416000000    -3.221000000
H    -1.914000000     3.912000000    -3.347000000
O    -3.528000000    -3.425000000    -1.741000000
H    -3.522000000    -3.697000000    -0.824000000
H    -2.643000000    -3.614000000    -2.053000000
O    -0.142000000    -1.605000000    -4.705000000
H    -0.949000000    -1.091000000    -4.740000000
H     0.352000000    -1.328000000    -5.476000000
O    -3.749000000     3.000000000     0.266000000
H    -3.555000000     2.511000000     1.066000000
H    -2.949000000     3.494000000     0.087000000
O     5.286000000    -3.567000000    -3.807000000
H     5.859000000    -3.225000000    -4.493000000
H     4.519000000    -2.994000000    -3.826000000
O     4.319000000     0.854000000     2.243000000
H     3.808000000     1.094000000     3.016000000
H     4.137000000     1.550000000     1.611000000
O     1.706000000    -0.873000000    -6.543000000
H     1.736000000    -0.008000000    -6.953000000
H     2.592000000    -1.010000000    -6.208000000
O     3.566000000     3.797000000    -6.281000000
H     3.271000000     2.955000000    -5.935000000
H     3.920000000     3.590000000    -7.146000000
O    -6.283000000    -4.837000000     2.228000000
H    -6.743000000    -4.730000000     3.061000000
H    -6.580000000    -4.100000000     1.694000000
O    -1.527000000    -6.519000000     3.374000000
H    -1.944000000    -5.658000000     3.373000000
H    -0.640000000    -6.356000000     3.051000000
O    -0.692000000     4.456000000     2.403000000
H    -0.289000000     5.315000000     2.528000000
H    -0.356000000     3.926000000     3.125000000
O     0.844000000    -2.809000000     3.644000000
H     0.913000000    -3.743000000     3.446000000
H     0.118000000    -2.502000000     3.100000000
O     4.565000000    -1.723000000     1.395000000
H     3.662000000    -1.878000000     1.118000000
H     4.587000000    -0.795000000     1.629000000
O     3.387000000     1.265000000    -4.419000000
H     3.751000000     1.445000000    -3.553000000
H     3.490000000     0.320000000    -4.531000000
O     2.554000000    -2.518000000    -3.452000000
H     1.761000000    -2.021000000    -3.652000000
H     2.524000000    -2.644000000    -2.503000000
O    -2.949000000     1.528000000     2.475000000
H    -2.241000000     1.542000000     3.119000000
H    -2.818000000     0.711000000     1.993000000
O     5.280000000     5.118000000     0.157000000
H     4.669000000     5.849000000     0.249000000
H     5.819000000     5.156000000     0.947000000
O    -5.061000000    -0.933000000     3.404000000
H    -4.443000000    -1.005000000     2.677000000
H    -5.148000000    -1.827000000     3.735000000
O    -1.437000000    -0.909000000     7.029000000
H    -1.172000000    -1.800000000     6.802000000
H    -1.309000000    -0.854000000     7.976000000
O     1.185000000    -5.206000000     2.794000000
H     1.107000000    -5.669000000     1.960000000
H     2.125000000    -5.185000000     2.970000000
O    -2.431000000     2.135000000    -5.496000000
H    -2.459000000     2.948000000    -6.001000000
H    -3.351000000     1.904000000    -5.364000000
O    -5.387000000    -3.217000000     4.729000000
H    -5.075000000    -3.353000000     5.624000000
H    -6.299000000    -3.508000000     4.747000000
O     1.112000000     5.889000000    -2.834000000
H     0.615000000     5.079000000    -2.724000000
H     1.948000000     5.718000000    -2.400000000
O    -3.343000000    -3.967000000     0.782000000
H    -3.917000000    -4.267000000     1.486000000
H    -3.303000000    -3.017000000     0.894000000
O    -0.982000000    -3.690000000    -3.101000000
H    -0.370000000    -3.079000000    -3.513000000
H    -1.282000000    -4.248000000    -3.819000000
O     5.938000000    -1.314000000    -1.572000000
H     6.623000000    -1.902000000    -1.891000000
H     5.174000000    -1.878000000    -1.452000000
O    -0.378000000    -3.175000000     6.080000000
H     0.160000000    -3.005000000     5.307000000
H    -1.161000000    -3.605000000     5.738000000
O     3.691000000     2.602000000     0.288000000
H     4.248000000     3.380000000     0.265000000
H     3.661000000     2.302000000    -0.620000000
O    -3.577000000     0.769000000     6.382000000
H    -3.198000000     1.046000000     5.548000000
H    -3.018000000     0.047000000     6.671000000
O     2.949000000     1.560000000     4.275000000
H     2.836000000     1.161000000     5.137000000
H     3.393000000     2.390000000     4.451000000
O     0.544000000     3.484000000    -1.108000000
H     0.671000000     2.942000000    -0.330000000
H     0.007000000     2.946000000    -1.690000000
O     0.146000000     2.571000000     4.523000000
H    -0.206000000     1.689000000     4.640000000
H     1.083000000     2.438000000     4.376000000
O    -2.292000000    -6.511000000     0.344000000
H    -1.379000000    -6.608000000     0.613000000
H    -2.531000000    -5.627000000     0.621000000
O     3.091000000    -3.528000000    -0.731000000
H     2.895000000    -4.461000000    -0.805000000
H     2.234000000    -3.105000000    -0.689000000
O     3.244000000    -2.111000000     5.171000000
H     2.322000000    -2.149000000     4.917000000
H     3.683000000    -2.711000000     4.569000000
O    -1.392000000     5.474000000    -0.199000000
H    -1.013000000     4.890000000    -0.856000000
H    -0.956000000     5.231000000     0.618000000
O    -4.780000000     0.128000000    -2.587000000
H    -5.425000000    -0.299000000    -3.151000000
H    -4.819000000    -0.363000000    -1.766000000
O    -4.747000000     2.888000000    -2.218000000
H    -4.346000000     3.061000000    -1.366000000
H    -4.524000000     1.977000000    -2.408000000
O     4.870000000     1.303000000    -1.896000000
H     5.193000000     0.406000000    -1.812000000
H     5.648000000     1.818000000    -2.111000000
O    -6.199000000     2.089000000     1.396000000
H    -5.574000000     2.505000000     0.802000000
H    -5.740000000     2.047000000     2.235000000
O    -8.055000000     0.449000000     0.437000000
H    -7.335000000     1.010000000     0.727000000
H    -8.167000000    -0.183000000     1.148000000
O     4.427000000    -0.942000000    -5.768000000
H     4.745000000    -1.835000000    -5.904000000
H     5.165000000    -0.385000000    -6.015000000
