158
-3029.62384
C     0.551000000     0.502000000     1.208000000
H     1.059000000     0.914000000     2.077000000
C     1.211000000     0.460000000     0.036000000
H     2.182000000     0.944000000    -0.038000000
C     0.585000000    -0.068000000    -1.105000000
H     1.021000000    -0.196000000    -2.020000000
C    -0.682000000    -0.650000000    -0.976000000
H    -1.193000000    -0.950000000    -1.888000000
C    -1.324000000    -0.576000000     0.314000000
H    -2.306000000    -1.036000000     0.390000000
C    -0.709000000     0.005000000     1.430000000
C    -1.390000000     0.165000000     2.778000000
O    -0.801000000     0.458000000     3.793000000
O    -2.594000000    -0.021000000     2.846000000
O    -4.326000000     1.146000000     1.021000000
H    -3.892000000     0.544000000     1.626000000
H    -4.284000000     1.996000000     1.459000000
O    -7.346000000    -1.058000000     2.102000000
H    -7.213000000    -0.443000000     2.823000000
H    -6.529000000    -1.556000000     2.059000000
O    -2.384000000    -1.808000000     5.292000000
H    -2.492000000    -1.007000000     4.778000000
H    -2.433000000    -1.517000000     6.202000000
O    -1.148000000     0.611000000     6.484000000
H    -0.257000000     0.624000000     6.833000000
H    -1.038000000     0.418000000     5.553000000
O     2.988000000     1.975000000     3.584000000
H     2.688000000     2.112000000     4.482000000
H     3.262000000     2.843000000     3.288000000
O     1.888000000    -2.584000000    -0.797000000
H     1.361000000    -1.865000000    -0.447000000
H     1.280000000    -3.321000000    -0.852000000
O    -2.266000000     1.840000000    -2.249000000
H    -2.819000000     2.094000000    -2.987000000
H    -2.672000000     1.043000000    -1.908000000
O    -5.377000000    -2.167000000    -0.320000000
H    -5.009000000    -1.321000000    -0.575000000
H    -4.715000000    -2.554000000     0.251000000
O    -0.054000000    -0.455000000    -5.493000000
H    -0.992000000    -0.432000000    -5.303000000
H     0.235000000     0.451000000    -5.380000000
O    -4.694000000     3.540000000     2.231000000
H    -5.257000000     4.123000000     2.740000000
H    -3.993000000     4.106000000     1.908000000
O    -4.616000000     2.565000000     7.229000000
H    -4.128000000     2.285000000     6.454000000
H    -4.664000000     1.782000000     7.777000000
O     5.325000000    -1.873000000    -3.203000000
H     6.123000000    -1.519000000    -3.596000000
H     5.213000000    -2.728000000    -3.617000000
O     4.983000000     4.042000000     2.032000000
H     4.159000000     4.467000000     1.796000000
H     4.901000000     3.153000000     1.688000000
O     1.348000000     0.393000000     7.607000000
H     1.926000000     0.422000000     8.369000000
H     1.288000000    -0.536000000     7.386000000
O     0.910000000     2.101000000    -5.322000000
H     0.693000000     2.732000000    -6.009000000
H     0.584000000     2.503000000    -4.516000000
O    -3.836000000    -2.728000000    -3.755000000
H    -4.261000000    -2.828000000    -4.606000000
H    -4.369000000    -3.252000000    -3.158000000
O     2.447000000    -2.078000000    -6.480000000
H     1.899000000    -1.448000000    -6.013000000
H     1.842000000    -2.535000000    -7.064000000
O     0.743000000    -4.997000000    -3.976000000
H     0.138000000    -5.456000000    -3.393000000
H     0.506000000    -4.074000000    -3.890000000
O     3.084000000     4.914000000    -3.870000000
H     2.933000000     4.117000000    -3.363000000
H     3.874000000     4.729000000    -4.378000000
O    -0.166000000    -4.703000000    -0.217000000
H    -0.576000000    -5.072000000     0.565000000
H    -0.173000000    -5.419000000    -0.852000000
O    -5.655000000    -2.074000000     3.950000000
H    -6.583000000    -2.292000000     4.034000000
H    -5.368000000    -1.899000000     4.846000000
O    -1.086000000     5.691000000     3.702000000
H    -0.324000000     6.263000000     3.613000000
H    -0.717000000     4.817000000     3.832000000
O     0.944000000    -1.254000000     4.792000000
H     1.348000000    -1.684000000     4.038000000
H     0.363000000    -0.596000000     4.410000000
O     4.016000000    -0.223000000     2.360000000
H     3.588000000     0.446000000     2.893000000
H     4.210000000     0.219000000     1.533000000
O     3.251000000     2.360000000    -2.003000000
H     4.005000000     2.928000000    -1.841000000
H     3.574000000     1.702000000    -2.619000000
O     0.345000000    -2.413000000    -3.447000000
H     0.104000000    -1.887000000    -4.210000000
H     0.895000000    -1.833000000    -2.920000000
O    -3.484000000     1.765000000     4.840000000
H    -3.347000000     1.105000000     4.160000000
H    -2.636000000     2.200000000     4.925000000
O     1.990000000    -2.588000000     2.603000000
H     2.506000000    -1.952000000     2.107000000
H     2.148000000    -3.422000000     2.160000000
O     0.046000000     2.786000000    -2.862000000
H     0.728000000     2.343000000    -2.358000000
H    -0.768000000     2.366000000    -2.585000000
O    -3.785000000    -2.631000000     2.238000000
H    -4.420000000    -2.535000000     2.948000000
H    -3.133000000    -1.950000000     2.407000000
O    -2.605000000    -3.474000000    -0.821000000
H    -2.890000000    -3.267000000    -1.711000000
H    -1.650000000    -3.495000000    -0.874000000
O     6.220000000    -0.782000000     0.157000000
H     7.006000000    -1.189000000     0.522000000
H     5.965000000    -1.358000000    -0.564000000
O     0.168000000    -2.147000000     7.224000000
H    -0.087000000    -2.053000000     6.306000000
H    -0.447000000    -2.789000000     7.579000000
O     0.128000000     5.483000000    -3.461000000
H     1.084000000     5.513000000    -3.432000000
H    -0.086000000     4.555000000    -3.371000000
O     2.311000000     5.189000000     1.403000000
H     2.785000000     6.018000000     1.475000000
H     1.441000000     5.438000000     1.088000000
O    -3.377000000    -0.245000000     7.692000000
H    -2.465000000    -0.111000000     7.436000000
H    -3.328000000    -0.587000000     8.585000000
O     1.908000000     3.702000000     5.523000000
H     1.839000000     3.718000000     6.478000000
H     1.997000000     4.622000000     5.274000000
O    -0.943000000     3.282000000     0.143000000
H    -0.249000000     2.623000000     0.172000000
H    -1.629000000     2.884000000    -0.393000000
O     4.604000000    -3.836000000    -5.524000000
H     3.931000000    -3.162000000    -5.431000000
H     5.357000000    -3.372000000    -5.891000000
O    -0.086000000     3.069000000     3.784000000
H    -0.383000000     2.159000000     3.795000000
H     0.794000000     3.039000000     4.157000000
O    -4.017000000    -4.851000000     0.812000000
H    -3.573000000    -4.605000000     0.000000000
H    -3.929000000    -4.081000000     1.375000000
O     4.491000000    -2.851000000    -0.929000000
H     4.735000000    -2.301000000    -1.674000000
H     3.625000000    -2.534000000    -0.671000000
O     3.454000000    -1.855000000     6.122000000
H     2.648000000    -1.653000000     5.645000000
H     4.106000000    -2.006000000     5.437000000
O    -6.172000000     1.521000000    -1.066000000
H    -5.583000000     1.425000000    -0.318000000
H    -7.035000000     1.658000000    -0.675000000
O     5.189000000     1.696000000     0.657000000
H     5.740000000     0.913000000     0.650000000
H     5.208000000     2.009000000    -0.248000000
O    -6.609000000     1.419000000     3.754000000
H    -6.436000000     2.011000000     3.023000000
H    -5.746000000     1.091000000     4.008000000
O    -2.729000000    -0.448000000    -4.887000000
H    -3.577000000    -0.049000000    -4.695000000
H    -2.842000000    -1.372000000    -4.664000000
O     4.608000000     0.761000000    -3.828000000
H     4.747000000    -0.065000000    -3.365000000
H     5.424000000     0.906000000    -4.308000000
