158
-3043.30953
C    -0.943000000     0.161000000     1.145000000
H    -1.518000000     0.159000000     2.067000000
C    -0.426000000    -1.108000000     0.714000000
H    -0.731000000    -2.045000000     1.174000000
C     0.465000000    -1.075000000    -0.327000000
H     0.970000000    -2.022000000    -0.679000000
C     0.795000000     0.109000000    -0.959000000
H     1.490000000     0.079000000    -1.795000000
C     0.288000000     1.344000000    -0.613000000
H     0.688000000     2.246000000    -1.071000000
C    -0.647000000     1.383000000     0.409000000
C    -1.280000000     2.728000000     0.782000000
O    -1.980000000     2.772000000     1.805000000
O    -1.099000000     3.716000000     0.132000000
O     3.999000000    -2.147000000    -0.383000000
H     3.792000000    -1.611000000    -1.148000000
H     3.894000000    -1.554000000     0.361000000
O    -3.682000000     3.735000000     3.603000000
H    -4.391000000     3.797000000     2.962000000
H    -2.940000000     3.389000000     3.107000000
O     2.899000000     6.916000000     0.981000000
H     2.068000000     6.548000000     0.679000000
H     3.007000000     6.569000000     1.866000000
O     4.793000000     3.792000000     1.285000000
H     5.062000000     4.710000000     1.313000000
H     4.253000000     3.724000000     0.498000000
O     0.025000000     0.386000000    -4.809000000
H    -0.681000000     0.339000000    -4.164000000
H     0.445000000     1.231000000    -4.644000000
O     4.317000000    -5.334000000    -3.060000000
H     4.165000000    -5.774000000    -2.224000000
H     5.022000000    -4.712000000    -2.879000000
O     4.037000000     0.646000000     2.793000000
H     3.862000000     0.672000000     1.852000000
H     3.415000000     1.268000000     3.170000000
O     3.174000000     3.453000000    -1.064000000
H     3.385000000     3.331000000    -1.990000000
H     2.428000000     4.053000000    -1.065000000
O    -3.454000000     5.950000000    -3.993000000
H    -3.136000000     6.796000000    -3.677000000
H    -2.816000000     5.316000000    -3.665000000
O    -4.296000000     1.533000000     0.973000000
H    -3.585000000     1.942000000     1.467000000
H    -4.072000000     0.603000000     0.959000000
O     2.604000000     1.992000000     4.401000000
H     1.656000000     2.043000000     4.277000000
H     2.725000000     1.288000000     5.038000000
O     2.302000000     0.012000000    -6.615000000
H     1.554000000     0.569000000    -6.831000000
H     2.034000000    -0.450000000    -5.821000000
O    -3.030000000    -2.826000000     3.005000000
H    -2.945000000    -3.509000000     3.671000000
H    -3.141000000    -3.304000000     2.184000000
O    -3.483000000    -6.342000000    -1.285000000
H    -2.665000000    -6.272000000    -0.793000000
H    -4.165000000    -6.133000000    -0.646000000
O    -2.489000000    -3.805000000     0.579000000
H    -3.342000000    -3.812000000     0.145000000
H    -1.855000000    -3.868000000    -0.136000000
O    -0.303000000     1.170000000     5.337000000
H     0.110000000     1.657000000     6.051000000
H    -1.243000000     1.262000000     5.497000000
O     1.859000000     5.176000000     2.838000000
H     1.302000000     4.502000000     3.227000000
H     2.327000000     5.558000000     3.581000000
O     0.589000000     3.254000000    -3.660000000
H     0.952000000     3.886000000    -3.038000000
H     0.770000000     3.634000000    -4.520000000
O    -5.600000000     3.958000000     1.447000000
H    -5.267000000     4.260000000     0.602000000
H    -5.787000000     3.029000000     1.314000000
O     1.386000000    -2.091000000    -4.005000000
H     2.205000000    -1.827000000    -3.587000000
H     0.823000000    -1.319000000    -3.938000000
O     3.460000000     0.848000000     0.130000000
H     2.570000000     0.504000000     0.204000000
H     3.352000000     1.710000000    -0.271000000
O     1.463000000    -2.310000000     5.709000000
H     1.171000000    -2.013000000     6.570000000
H     0.670000000    -2.300000000     5.171000000
O     6.317000000    -3.656000000    -1.047000000
H     5.496000000    -3.234000000    -0.792000000
H     6.444000000    -4.345000000    -0.395000000
O     1.201000000    -4.487000000     0.071000000
H     0.705000000    -5.270000000     0.312000000
H     1.550000000    -4.161000000     0.900000000
O    -2.291000000     7.924000000    -2.421000000
H    -2.826000000     8.335000000    -1.742000000
H    -1.504000000     7.632000000    -1.961000000
O     4.360000000    -4.157000000     1.932000000
H     3.882000000    -3.496000000     2.432000000
H     4.377000000    -3.816000000     1.037000000
O    -4.061000000    -1.404000000     0.496000000
H    -3.302000000    -1.932000000     0.248000000
H    -4.497000000    -1.207000000    -0.333000000
O    -1.811000000     4.350000000    -2.278000000
H    -1.073000000     3.982000000    -2.763000000
H    -1.613000000     4.160000000    -1.361000000
O    -5.644000000    -1.745000000     3.351000000
H    -5.445000000    -0.810000000     3.413000000
H    -4.803000000    -2.155000000     3.150000000
O     0.175000000     8.145000000    -1.128000000
H     0.527000000     7.480000000    -0.535000000
H    -0.036000000     8.885000000    -0.559000000
O     6.503000000     1.486000000    -0.406000000
H     5.627000000     1.232000000    -0.696000000
H     6.483000000     2.443000000    -0.390000000
O    -2.010000000    -0.518000000    -2.995000000
H    -2.391000000    -1.388000000    -3.117000000
H    -1.253000000    -0.667000000    -2.428000000
O     3.704000000    -0.865000000    -3.011000000
H     4.530000000    -1.322000000    -3.171000000
H     3.886000000     0.046000000    -3.241000000
O     0.191000000     6.002000000     0.657000000
H     0.642000000     5.731000000     1.456000000
H    -0.272000000     5.218000000     0.365000000
O     5.006000000     1.261000000    -4.215000000
H     4.591000000     2.120000000    -4.299000000
H     5.896000000     1.453000000    -3.920000000
O    -0.976000000    -4.667000000    -1.991000000
H    -0.099000000    -4.463000000    -1.664000000
H    -0.968000000    -5.615000000    -2.124000000
O     0.029000000     3.398000000     3.731000000
H    -0.628000000     3.259000000     3.048000000
H    -0.045000000     2.628000000     4.295000000
O    -2.908000000     1.548000000     5.764000000
H    -3.657000000     0.953000000     5.767000000
H    -3.180000000     2.272000000     5.200000000
O     1.381000000     5.161000000    -2.038000000
H     1.926000000     5.683000000    -2.627000000
H     0.967000000     5.803000000    -1.462000000
O    -3.913000000     7.807000000    -0.268000000
H    -4.638000000     7.405000000    -0.746000000
H    -3.672000000     7.158000000     0.393000000
O     2.622000000    -1.968000000     2.976000000
H     2.283000000    -2.058000000     3.867000000
H     3.104000000    -1.141000000     2.986000000
O    -2.845000000     6.129000000     1.688000000
H    -3.287000000     5.626000000     2.372000000
H    -2.524000000     5.468000000     1.074000000
O     2.150000000    -4.789000000    -4.577000000
H     3.030000000    -4.911000000    -4.221000000
H     1.952000000    -3.867000000    -4.415000000
O     1.067000000    -7.240000000    -3.981000000
H     1.320000000    -6.317000000    -3.961000000
H     0.464000000    -7.339000000    -3.244000000
O    -4.396000000     3.873000000    -0.989000000
H    -4.518000000     2.982000000    -1.315000000
H    -3.533000000     4.131000000    -1.311000000
O    -0.803000000     6.863000000     4.793000000
H    -1.502000000     7.477000000     5.018000000
H    -1.251000000     6.028000000     4.660000000
O    -3.059000000    -3.015000000    -2.845000000
H    -2.314000000    -3.609000000    -2.756000000
H    -3.760000000    -3.434000000    -2.347000000
O    -1.072000000    -1.808000000     4.746000000
H    -0.995000000    -1.020000000     4.207000000
H    -1.672000000    -2.373000000     4.260000000
