158
-3051.22142
C     0.137000000    -0.749000000     1.322000000
H     0.431000000    -1.293000000     2.217000000
C     0.290000000    -1.318000000     0.093000000
H     0.683000000    -2.331000000     0.059000000
C     0.029000000    -0.576000000    -1.093000000
H     0.216000000    -0.960000000    -2.086000000
C    -0.514000000     0.738000000    -0.999000000
H    -0.535000000     1.374000000    -1.881000000
C    -0.681000000     1.294000000     0.276000000
H    -0.931000000     2.348000000     0.364000000
C    -0.324000000     0.594000000     1.438000000
C    -0.206000000     1.363000000     2.694000000
O    -0.164000000     0.775000000     3.756000000
O    -0.249000000     2.594000000     2.643000000
O    -2.687000000     3.414000000     3.787000000
H    -2.119000000     2.992000000     3.142000000
H    -3.347000000     3.869000000     3.263000000
O     2.882000000    -2.552000000     2.431000000
H     2.748000000    -3.193000000     1.732000000
H     3.435000000    -1.879000000     2.035000000
O    -2.946000000     0.545000000     7.671000000
H    -2.632000000     0.698000000     6.780000000
H    -2.436000000     1.149000000     8.211000000
O     0.434000000    -3.036000000    -5.552000000
H     0.021000000    -3.780000000    -5.113000000
H     0.269000000    -2.293000000    -4.971000000
O     2.606000000     2.087000000     6.020000000
H     3.354000000     2.014000000     6.612000000
H     2.834000000     1.530000000     5.276000000
O     2.758000000    -0.734000000    -3.185000000
H     3.061000000    -0.069000000    -2.567000000
H     1.827000000    -0.543000000    -3.304000000
O    -0.164000000     4.102000000    -2.763000000
H    -0.224000000     4.135000000    -3.718000000
H     0.747000000     3.865000000    -2.589000000
O    -3.856000000     0.121000000     0.989000000
H    -3.680000000     0.061000000     1.928000000
H    -3.266000000    -0.520000000     0.593000000
O    -4.412000000     4.531000000     1.658000000
H    -3.942000000     4.209000000     0.888000000
H    -4.362000000     5.484000000     1.587000000
O    -2.186000000     5.609000000     5.517000000
H    -2.249000000     4.742000000     5.118000000
H    -1.468000000     5.533000000     6.145000000
O     3.799000000    -3.198000000    -1.827000000
H     4.555000000    -2.673000000    -1.564000000
H     3.284000000    -2.615000000    -2.385000000
O    -2.925000000    -2.087000000    -4.108000000
H    -2.186000000    -2.683000000    -3.987000000
H    -3.602000000    -2.421000000    -3.519000000
O     3.138000000    -3.910000000    -5.848000000
H     2.201000000    -3.718000000    -5.847000000
H     3.559000000    -3.051000000    -5.841000000
O    -1.032000000     7.441000000     3.878000000
H    -0.184000000     6.998000000     3.858000000
H    -1.542000000     6.950000000     4.523000000
O    -0.246000000    -5.064000000     1.718000000
H     0.018000000    -4.356000000     1.130000000
H    -0.597000000    -4.617000000     2.488000000
O    -1.818000000    -3.613000000     3.658000000
H    -2.499000000    -3.243000000     4.219000000
H    -0.998000000    -3.389000000     4.097000000
O     1.065000000     5.798000000     3.384000000
H     2.008000000     5.684000000     3.266000000
H     0.817000000     5.112000000     4.003000000
O    -0.119000000    -0.907000000     5.738000000
H    -0.004000000    -1.694000000     5.206000000
H    -0.116000000    -0.188000000     5.106000000
O     4.097000000     1.777000000     1.598000000
H     4.017000000     1.175000000     2.338000000
H     4.792000000     2.382000000     1.855000000
O     4.126000000    -1.059000000    -5.635000000
H     3.843000000    -0.226000000    -6.010000000
H     3.815000000    -1.033000000    -4.730000000
O     0.760000000     3.615000000     5.028000000
H     0.158000000     3.139000000     4.456000000
H     1.414000000     2.964000000     5.282000000
O    -0.359000000     5.173000000     7.192000000
H     0.145000000     4.712000000     6.521000000
H     0.177000000     5.107000000     7.982000000
O     0.902000000    -2.976000000     4.259000000
H     1.474000000    -3.330000000     4.940000000
H     1.502000000    -2.664000000     3.581000000
O     0.605000000    -7.319000000     0.408000000
H     0.111000000    -6.521000000     0.597000000
H     1.522000000    -7.058000000     0.492000000
O    -0.091000000     4.344000000    -5.348000000
H     0.505000000     4.907000000    -5.842000000
H    -0.740000000     4.059000000    -5.991000000
O     2.324000000     2.831000000    -2.558000000
H     2.603000000     2.414000000    -3.373000000
H     2.581000000     2.215000000    -1.872000000
O    -2.104000000     1.519000000     5.460000000
H    -2.479000000     2.327000000     5.109000000
H    -1.410000000     1.289000000     4.843000000
O    -2.388000000     0.698000000    -4.736000000
H    -2.724000000    -0.192000000    -4.635000000
H    -2.736000000     1.172000000    -3.981000000
O    -1.467000000    -4.228000000    -1.438000000
H    -1.957000000    -4.939000000    -1.026000000
H    -1.771000000    -3.438000000    -0.992000000
O     0.185000000    -0.050000000    -4.696000000
H    -0.498000000     0.486000000    -4.293000000
H     0.161000000     0.188000000    -5.622000000
O     2.423000000     0.371000000     8.187000000
H     1.983000000     0.982000000     8.778000000
H     2.110000000     0.614000000     7.315000000
O     2.399000000     5.385000000    -1.253000000
H     2.562000000     4.923000000    -2.075000000
H     2.041000000     4.717000000    -0.669000000
O     0.117000000     1.556000000    -7.124000000
H    -0.491000000     2.257000000    -6.889000000
H     0.956000000     2.000000000    -7.252000000
O    -1.164000000    -4.499000000    -4.096000000
H    -1.842000000    -5.116000000    -4.371000000
H    -1.258000000    -4.448000000    -3.145000000
O     1.986000000     3.350000000     0.488000000
H     2.787000000     3.178000000     0.983000000
H     1.289000000     2.965000000     1.019000000
O     2.415000000     0.487000000     3.839000000
H     1.514000000     0.767000000     3.682000000
H     2.333000000    -0.409000000     4.167000000
O    -3.362000000    -0.086000000     3.545000000
H    -3.199000000     0.431000000     4.334000000
H    -3.770000000    -0.891000000     3.865000000
O     4.394000000     0.716000000    -0.906000000
H     4.973000000     1.042000000    -1.596000000
H     4.159000000     1.496000000    -0.404000000
O     2.661000000    -1.874000000     5.983000000
H     3.188000000    -2.024000000     6.769000000
H     1.827000000    -1.541000000     6.314000000
O     4.627000000    -5.452000000    -0.130000000
H     5.080000000    -5.930000000    -0.825000000
H     4.300000000    -4.661000000    -0.557000000
O    -0.740000000     4.919000000     1.642000000
H    -0.385000000     5.397000000     2.392000000
H    -0.486000000     4.009000000     1.796000000
O    -1.623000000    -2.419000000     7.501000000
H    -2.517000000    -2.180000000     7.744000000
H    -1.415000000    -1.848000000     6.762000000
O    -3.745000000     2.809000000    -0.459000000
H    -3.381000000     2.624000000    -1.325000000
H    -3.717000000     1.967000000    -0.003000000
O    -1.897000000     5.327000000    -0.751000000
H    -1.685000000     5.426000000     0.177000000
H    -1.391000000     4.565000000    -1.033000000
O    -2.537000000     2.833000000    -2.855000000
H    -1.613000000     3.070000000    -2.774000000
H    -2.925000000     3.549000000    -3.358000000
O     1.943000000     7.091000000     1.105000000
H     1.636000000     6.587000000     1.859000000
H     2.323000000     6.437000000     0.519000000
O    -3.442000000     1.303000000    -7.286000000
H    -2.950000000     1.964000000    -7.773000000
H    -2.888000000     1.100000000    -6.532000000
O    -2.804000000    -2.672000000     0.199000000
H    -3.461000000    -3.368000000     0.224000000
H    -2.504000000    -2.593000000     1.104000000
