158
-3049.17038
C     0.803000000     1.274000000    -0.282000000
H     1.545000000     2.055000000    -0.430000000
C     0.117000000     0.557000000    -1.265000000
H     0.272000000     0.768000000    -2.320000000
C    -0.542000000    -0.591000000    -0.935000000
H    -0.948000000    -1.223000000    -1.654000000
C    -0.843000000    -0.908000000     0.426000000
H    -1.391000000    -1.808000000     0.696000000
C    -0.253000000    -0.152000000     1.400000000
H    -0.331000000    -0.443000000     2.445000000
C     0.642000000     0.935000000     1.125000000
C     1.316000000     1.618000000     2.258000000
O     2.294000000     2.308000000     2.010000000
O     0.987000000     1.557000000     3.447000000
O    -1.549000000     6.358000000     3.238000000
H    -0.840000000     5.836000000     2.862000000
H    -1.193000000     6.686000000     4.063000000
O     4.575000000     1.639000000    -1.393000000
H     4.543000000     1.916000000    -0.477000000
H     4.457000000     2.447000000    -1.891000000
O    -2.957000000     1.062000000    -1.583000000
H    -2.040000000     1.159000000    -1.328000000
H    -2.922000000     0.780000000    -2.497000000
O    -2.179000000    -1.209000000    -7.005000000
H    -1.927000000    -0.690000000    -7.769000000
H    -3.046000000    -0.880000000    -6.767000000
O    -5.116000000    -1.401000000    -4.323000000
H    -4.270000000    -0.986000000    -4.156000000
H    -5.414000000    -1.015000000    -5.147000000
O     2.018000000     4.624000000    -0.319000000
H     2.591000000     3.961000000     0.067000000
H     1.587000000     5.033000000     0.431000000
O     4.901000000     3.937000000    -2.813000000
H     4.571000000     4.338000000    -3.617000000
H     4.906000000     4.651000000    -2.175000000
O    -5.131000000     0.117000000     0.066000000
H    -4.694000000    -0.529000000     0.622000000
H    -4.481000000     0.335000000    -0.602000000
O    -5.029000000    -3.361000000     0.481000000
H    -4.613000000    -2.802000000     1.137000000
H    -4.761000000    -2.986000000    -0.358000000
O    -4.008000000    -3.722000000    -6.319000000
H    -3.805000000    -4.629000000    -6.088000000
H    -4.037000000    -3.262000000    -5.480000000
O     3.562000000    -0.546000000    -3.966000000
H     3.814000000    -0.766000000    -3.069000000
H     3.071000000    -1.309000000    -4.271000000
O     2.561000000    -1.676000000     0.245000000
H     2.097000000    -2.175000000    -0.427000000
H     2.221000000    -2.013000000     1.073000000
O    -1.070000000     3.615000000    -2.282000000
H    -0.443000000     4.132000000    -1.776000000
H    -1.786000000     4.222000000    -2.466000000
O    -0.039000000    -4.002000000    -0.566000000
H    -0.743000000    -4.133000000    -1.201000000
H    -0.489000000    -3.754000000     0.242000000
O    -3.901000000    -1.222000000     2.214000000
H    -3.900000000    -1.038000000     3.154000000
H    -3.029000000    -1.574000000     2.039000000
O    -1.441000000    -4.037000000     4.407000000
H    -1.704000000    -3.548000000     5.187000000
H    -2.157000000    -4.654000000     4.258000000
O    -0.722000000    -5.997000000    -4.602000000
H    -1.028000000    -5.091000000    -4.562000000
H    -0.399000000    -6.179000000    -3.719000000
O     4.817000000    -0.954000000    -1.524000000
H     4.318000000    -1.279000000    -0.775000000
H     4.763000000    -0.001000000    -1.453000000
O    -0.835000000     1.870000000     7.402000000
H    -1.596000000     1.815000000     7.980000000
H    -0.893000000     2.742000000     7.012000000
O     2.001000000     1.222000000    -5.366000000
H     2.414000000     1.317000000    -4.508000000
H     2.733000000     1.183000000    -5.982000000
O    -0.470000000    -3.476000000     2.052000000
H     0.302000000    -2.922000000     2.167000000
H    -0.797000000    -3.619000000     2.940000000
O     2.001000000     3.389000000     4.901000000
H     2.850000000     2.956000000     4.980000000
H     1.498000000     2.826000000     4.312000000
O     4.063000000     0.595000000     1.116000000
H     3.417000000    -0.087000000     0.933000000
H     3.540000000     1.367000000     1.335000000
O     1.932000000    -2.372000000     3.036000000
H     2.496000000    -3.093000000     3.314000000
H     1.804000000    -1.849000000     3.827000000
O     0.337000000     1.515000000    -7.595000000
H    -0.568000000     1.827000000    -7.577000000
H     0.612000000     1.526000000    -6.678000000
O     4.410000000    -1.669000000     5.461000000
H     3.529000000    -1.295000000     5.419000000
H     4.902000000    -1.198000000     4.789000000
O     1.431000000     5.137000000     2.272000000
H     1.482000000     4.197000000     2.450000000
H     2.152000000     5.515000000     2.775000000
O     1.406000000     0.405000000     7.820000000
H     0.536000000     0.803000000     7.836000000
H     1.962000000     1.025000000     8.292000000
O    -0.877000000     1.705000000    -4.683000000
H    -0.929000000     2.429000000    -4.060000000
H     0.059000000     1.517000000    -4.755000000
O    -1.810000000    -7.410000000    -0.488000000
H    -2.147000000    -7.466000000     0.406000000
H    -1.946000000    -6.496000000    -0.738000000
O    -1.434000000     1.400000000     4.617000000
H    -1.106000000     1.495000000     5.511000000
H    -0.719000000     1.718000000     4.065000000
O     5.336000000    -0.099000000     3.489000000
H     5.147000000    -0.315000000     2.576000000
H     4.770000000     0.648000000     3.681000000
O     5.217000000     6.058000000    -0.810000000
H     4.762000000     5.423000000    -0.257000000
H     5.017000000     6.907000000    -0.415000000
O     4.290000000     4.144000000     1.154000000
H     5.072000000     3.615000000     0.995000000
H     3.710000000     3.569000000     1.653000000
O     0.513000000    -6.289000000     1.889000000
H     0.698000000    -6.319000000     2.827000000
H     0.120000000    -5.427000000     1.751000000
O     1.570000000    -2.627000000    -4.750000000
H     1.575000000    -2.325000000    -5.658000000
H     2.315000000    -3.225000000    -4.693000000
O    -3.431000000    -0.635000000     4.941000000
H    -2.783000000     0.067000000     4.883000000
H    -3.199000000    -1.111000000     5.738000000
O    -1.294000000    -3.135000000    -4.569000000
H    -0.341000000    -3.068000000    -4.512000000
H    -1.508000000    -2.776000000    -5.430000000
O     4.763000000     2.701000000     5.458000000
H     5.148000000     3.541000000     5.710000000
H     5.515000000     2.130000000     5.302000000
O     1.908000000     5.940000000    -2.647000000
H     2.184000000     5.344000000    -1.951000000
H     1.748000000     6.772000000    -2.201000000
O    -3.929000000     1.993000000     2.357000000
H    -4.335000000     1.683000000     3.166000000
H    -3.032000000     1.661000000     2.396000000
O    -0.558000000     4.132000000     5.782000000
H     0.309000000     3.761000000     5.620000000
H    -0.403000000     5.072000000     5.872000000
O    -3.648000000    -2.435000000    -1.670000000
H    -3.389000000    -1.517000000    -1.587000000
H    -4.082000000    -2.486000000    -2.522000000
O     2.662000000    -5.055000000    -0.400000000
H     1.863000000    -4.528000000    -0.411000000
H     2.903000000    -5.142000000    -1.322000000
O     1.930000000    -0.364000000     5.160000000
H     1.692000000     0.501000000     4.826000000
H     1.644000000    -0.355000000     6.073000000
O    -4.422000000     3.605000000    -1.437000000
H    -4.599000000     3.136000000    -2.252000000
H    -3.662000000     3.157000000    -1.063000000
O    -2.540000000    -0.631000000    -3.945000000
H    -2.049000000    -0.041000000    -4.517000000
H    -2.044000000    -1.449000000    -3.963000000
O    -2.703000000    -5.045000000    -1.497000000
H    -3.001000000    -4.136000000    -1.479000000
H    -3.424000000    -5.526000000    -1.904000000
