158
-3033.18321
C     0.467000000     0.929000000     1.009000000
H     0.867000000     1.663000000     1.703000000
C     0.353000000     1.193000000    -0.328000000
H     0.835000000     2.104000000    -0.675000000
C    -0.146000000     0.246000000    -1.216000000
H    -0.204000000     0.426000000    -2.209000000
C    -0.541000000    -0.999000000    -0.705000000
H    -0.892000000    -1.728000000    -1.431000000
C    -0.564000000    -1.221000000     0.621000000
H    -1.081000000    -2.091000000     1.017000000
C     0.013000000    -0.302000000     1.533000000
C     0.155000000    -0.580000000     3.023000000
O     0.924000000     0.063000000     3.673000000
O    -0.360000000    -1.568000000     3.560000000
O    -4.249000000    -0.095000000     2.253000000
H    -3.911000000    -0.913000000     2.618000000
H    -3.740000000     0.589000000     2.688000000
O     1.518000000     2.148000000    -7.204000000
H     1.356000000     1.500000000    -6.519000000
H     2.000000000     2.848000000    -6.764000000
O     0.670000000    -4.234000000    -1.135000000
H     1.050000000    -5.084000000    -1.358000000
H    -0.234000000    -4.287000000    -1.445000000
O     0.881000000     5.095000000    -1.621000000
H     1.678000000     5.614000000    -1.729000000
H     0.367000000     5.279000000    -2.407000000
O    -1.678000000     3.589000000    -3.193000000
H    -2.489000000     3.764000000    -3.669000000
H    -1.963000000     3.385000000    -2.302000000
O    -0.954000000    -3.084000000     5.795000000
H    -0.763000000    -2.415000000     5.138000000
H    -0.895000000    -3.912000000     5.319000000
O     3.482000000    -0.381000000    -7.167000000
H     3.229000000    -0.785000000    -7.997000000
H     2.689000000    -0.414000000    -6.632000000
O     0.882000000    -0.588000000     6.385000000
H     0.819000000    -0.675000000     5.433000000
H     1.412000000    -1.337000000     6.659000000
O     5.423000000    -0.095000000     0.691000000
H     4.636000000    -0.185000000     1.229000000
H     5.527000000    -0.950000000     0.273000000
O     1.435000000    -2.099000000    -3.217000000
H     0.644000000    -2.412000000    -3.656000000
H     1.434000000    -2.549000000    -2.372000000
O    -2.600000000    -0.852000000    -6.057000000
H    -2.167000000    -0.325000000    -6.728000000
H    -1.885000000    -1.315000000    -5.618000000
O    -1.762000000    -4.029000000    -2.321000000
H    -2.413000000    -3.344000000    -2.168000000
H    -2.269000000    -4.840000000    -2.343000000
O     3.075000000    -1.120000000    -0.799000000
H     2.349000000    -0.695000000    -0.343000000
H     2.739000000    -1.291000000    -1.679000000
O     4.044000000    -3.275000000    -3.797000000
H     3.110000000    -3.067000000    -3.781000000
H     4.119000000    -4.081000000    -3.285000000
O     4.799000000     0.881000000    -4.856000000
H     4.254000000     0.294000000    -5.379000000
H     5.643000000     0.434000000    -4.796000000
O    -4.203000000    -1.030000000    -4.108000000
H    -3.651000000    -1.084000000    -4.888000000
H    -4.867000000    -0.377000000    -4.329000000
O     2.347000000    -3.351000000     1.256000000
H     2.198000000    -4.292000000     1.351000000
H     1.979000000    -3.136000000     0.399000000
O    -3.090000000     3.507000000     1.126000000
H    -2.824000000     4.427000000     1.110000000
H    -3.505000000     3.363000000     0.276000000
O     1.730000000    -2.920000000     4.049000000
H     1.997000000    -3.220000000     3.180000000
H     1.115000000    -2.207000000     3.877000000
O     3.446000000    -0.746000000     2.496000000
H     3.088000000    -0.261000000     3.239000000
H     2.734000000    -1.324000000     2.221000000
O     4.452000000     3.103000000    -3.305000000
H     4.453000000     2.271000000    -3.777000000
H     4.823000000     2.893000000    -2.448000000
O    -3.251000000     2.257000000     3.486000000
H    -2.496000000     2.295000000     4.073000000
H    -2.973000000     2.737000000     2.705000000
O    -5.552000000    -2.316000000     3.569000000
H    -5.985000000    -3.166000000     3.490000000
H    -4.626000000    -2.504000000     3.417000000
O    -0.693000000     2.107000000     4.685000000
H    -0.241000000     1.375000000     4.266000000
H    -0.472000000     2.026000000     5.613000000
O    -2.767000000    -2.755000000     3.228000000
H    -2.504000000    -3.604000000     2.875000000
H    -1.947000000    -2.270000000     3.323000000
O    -0.200000000     1.520000000     7.449000000
H    -0.998000000     1.100000000     7.770000000
H     0.226000000     0.848000000     6.916000000
O    -2.539000000    -0.528000000     6.349000000
H    -3.140000000    -1.243000000     6.139000000
H    -1.669000000    -0.889000000     6.177000000
O    -1.018000000    -2.511000000    -4.495000000
H    -1.135000000    -3.170000000    -5.180000000
H    -1.085000000    -3.003000000    -3.676000000
O     4.004000000     0.150000000     6.024000000
H     4.816000000    -0.215000000     6.375000000
H     3.389000000    -0.584000000     6.032000000
O    -0.713000000    -5.718000000     4.282000000
H    -1.636000000    -5.784000000     4.037000000
H    -0.332000000    -6.552000000     4.009000000
O     1.520000000    -0.152000000    -5.268000000
H     1.476000000    -0.856000000    -4.620000000
H     1.075000000     0.586000000    -4.851000000
O    -3.302000000     0.519000000    -0.579000000
H    -3.849000000     0.521000000     0.206000000
H    -2.437000000     0.254000000    -0.268000000
O     3.060000000    -2.468000000     6.357000000
H     2.738000000    -2.719000000     5.491000000
H     2.505000000    -2.952000000     6.968000000
O     0.493000000    -3.450000000     7.769000000
H     0.235000000    -4.336000000     8.024000000
H    -0.149000000    -3.196000000     7.105000000
O     2.926000000     5.396000000     2.553000000
H     3.055000000     4.553000000     2.987000000
H     3.040000000     6.044000000     3.248000000
O     0.890000000     4.327000000     4.822000000
H     0.282000000     3.706000000     4.422000000
H     1.714000000     3.845000000     4.891000000
O    -3.457000000    -3.028000000     6.766000000
H    -3.704000000    -3.920000000     7.009000000
H    -2.544000000    -3.099000000     6.487000000
O     2.693000000     1.957000000     4.511000000
H     2.020000000     1.355000000     4.195000000
H     3.301000000     1.402000000     5.000000000
O     0.154000000     5.856000000     0.839000000
H     0.543000000     5.518000000     0.032000000
H     0.855000000     5.794000000     1.487000000
O    -0.372000000    -0.512000000    -7.895000000
H     0.278000000    -0.907000000    -7.314000000
H    -0.393000000    -1.089000000    -8.658000000
O     4.963000000     3.721000000     3.755000000
H     4.169000000     3.223000000     3.947000000
H     5.511000000     3.117000000     3.254000000
O    -0.998000000    -4.348000000     1.600000000
H    -0.843000000    -4.878000000     2.381000000
H    -0.129000000    -4.224000000     1.218000000
O     0.245000000     2.048000000    -4.288000000
H    -0.534000000     2.462000000    -3.917000000
H     0.979000000     2.495000000    -3.866000000
O    -3.672000000    -1.984000000    -1.827000000
H    -4.164000000    -1.880000000    -2.641000000
H    -3.543000000    -1.090000000    -1.510000000
O    -4.926000000     2.333000000    -1.330000000
H    -4.873000000     2.433000000    -2.280000000
H    -4.272000000     1.664000000    -1.123000000
O     3.819000000     5.692000000    -2.373000000
H     3.940000000     5.290000000    -1.513000000
H     3.958000000     4.976000000    -2.993000000
O    -3.906000000    -4.068000000    -4.794000000
H    -3.631000000    -3.202000000    -4.491000000
H    -3.362000000    -4.235000000    -5.564000000
O    -3.894000000    -4.807000000     1.194000000
H    -4.677000000    -4.726000000     0.649000000
H    -3.196000000    -4.414000000     0.669000000
