158
-3041.98658
C     0.604000000     1.321000000     0.041000000
H     1.112000000     2.282000000     0.076000000
C     0.300000000     0.556000000    -1.123000000
H     0.558000000     0.934000000    -2.108000000
C    -0.229000000    -0.706000000    -1.017000000
H    -0.346000000    -1.241000000    -1.933000000
C    -0.560000000    -1.143000000     0.218000000
H    -1.149000000    -2.050000000     0.316000000
C    -0.261000000    -0.429000000     1.362000000
H    -0.498000000    -0.804000000     2.355000000
C     0.273000000     0.841000000     1.274000000
C     0.507000000     1.765000000     2.546000000
O     1.136000000     2.854000000     2.439000000
O     0.267000000     1.364000000     3.650000000
O     4.306000000     1.727000000    -0.922000000
H     5.160000000     1.788000000    -1.349000000
H     3.838000000     2.511000000    -1.208000000
O    -3.912000000     1.316000000     0.591000000
H    -3.154000000     0.770000000     0.801000000
H    -4.519000000     1.171000000     1.317000000
O    -1.081000000    -5.977000000    -4.758000000
H    -1.703000000    -6.615000000    -4.409000000
H    -0.320000000    -6.046000000    -4.181000000
O     4.511000000    -2.630000000    -2.602000000
H     3.560000000    -2.549000000    -2.671000000
H     4.782000000    -2.994000000    -3.445000000
O    -6.260000000    -0.665000000    -3.967000000
H    -5.775000000     0.140000000    -3.785000000
H    -5.639000000    -1.368000000    -3.773000000
O    -0.210000000     5.695000000    -0.234000000
H     0.675000000     6.028000000    -0.385000000
H    -0.710000000     6.461000000     0.047000000
O     3.347000000     3.890000000    -2.373000000
H     2.404000000     3.817000000    -2.226000000
H     3.544000000     4.812000000    -2.207000000
O    -3.287000000    -2.620000000     2.367000000
H    -3.711000000    -3.108000000     1.662000000
H    -2.410000000    -3.001000000     2.428000000
O     3.828000000    -0.663000000     0.772000000
H     3.415000000    -0.241000000     0.018000000
H     4.368000000     0.023000000     1.165000000
O    -2.380000000     3.218000000    -3.219000000
H    -1.536000000     3.469000000    -2.844000000
H    -2.209000000     3.131000000    -4.157000000
O     0.167000000    -4.659000000    -0.773000000
H    -0.712000000    -5.035000000    -0.813000000
H     0.321000000    -4.511000000     0.160000000
O    -5.453000000    -0.811000000     2.240000000
H    -4.679000000    -1.334000000     2.447000000
H    -5.774000000    -1.174000000     1.414000000
O    -0.942000000    -2.753000000     5.510000000
H    -0.343000000    -2.134000000     5.092000000
H    -0.539000000    -2.944000000     6.356000000
O    -0.069000000    -3.248000000    -4.795000000
H    -0.685000000    -2.543000000    -4.594000000
H    -0.620000000    -3.965000000    -5.110000000
O     2.811000000     0.115000000    -3.314000000
H     3.305000000    -0.517000000    -2.791000000
H     2.993000000     0.960000000    -2.903000000
O     0.834000000    -6.520000000    -2.779000000
H     1.641000000    -6.152000000    -3.138000000
H     0.674000000    -6.015000000    -1.982000000
O    -5.032000000    -4.640000000    -2.170000000
H    -5.985000000    -4.729000000    -2.194000000
H    -4.714000000    -5.524000000    -1.987000000
O    -0.798000000    -0.654000000    -7.073000000
H    -1.468000000    -0.607000000    -6.392000000
H    -0.027000000    -0.245000000    -6.680000000
O    -1.035000000     6.917000000     3.683000000
H    -0.127000000     6.940000000     3.985000000
H    -1.104000000     6.096000000     3.195000000
O     2.086000000    -2.534000000     2.435000000
H     2.145000000    -1.770000000     1.861000000
H     1.746000000    -2.188000000     3.260000000
O     1.119000000     3.780000000     5.145000000
H     1.237000000     4.617000000     4.696000000
H     1.117000000     3.129000000     4.443000000
O     3.897000000     2.094000000     3.468000000
H     4.489000000     1.753000000     2.797000000
H     3.056000000     2.188000000     3.020000000
O     0.991000000    -1.013000000     4.773000000
H     1.638000000    -0.770000000     5.435000000
H     0.779000000    -0.190000000     4.332000000
O    -1.746000000    -0.216000000     7.050000000
H    -1.662000000    -1.120000000     7.355000000
H    -2.179000000     0.240000000     7.771000000
O    -1.017000000    -4.200000000     3.066000000
H    -1.072000000    -5.141000000     3.229000000
H    -0.927000000    -3.811000000     3.936000000
O    -0.756000000     4.633000000     2.264000000
H    -0.061000000     4.001000000     2.449000000
H    -0.700000000     4.780000000     1.319000000
O    -4.299000000     1.047000000    -2.580000000
H    -4.169000000     1.078000000    -1.632000000
H    -3.765000000     1.767000000    -2.917000000
O     2.782000000     4.467000000     7.291000000
H     2.201000000     5.168000000     7.586000000
H     2.295000000     4.029000000     6.593000000
O    -2.141000000    -5.228000000     0.499000000
H    -3.034000000    -4.929000000     0.331000000
H    -1.920000000    -4.856000000     1.353000000
O    -2.115000000     1.228000000     4.788000000
H    -2.169000000     0.710000000     5.591000000
H    -1.234000000     1.062000000     4.454000000
O     1.914000000     6.510000000     4.079000000
H     2.017000000     7.113000000     3.343000000
H     2.068000000     7.050000000     4.854000000
O     3.679000000    -0.072000000     5.356000000
H     3.529000000     0.608000000     4.699000000
H     4.619000000    -0.243000000     5.314000000
O     2.920000000     5.979000000    -0.667000000
H     2.993000000     5.574000000     0.197000000
H     3.324000000     6.840000000    -0.562000000
O     3.324000000     4.787000000     2.095000000
H     3.348000000     5.179000000     2.968000000
H     2.524000000     4.262000000     2.090000000
O     1.467000000     0.362000000    -5.871000000
H     2.282000000     0.816000000    -6.084000000
H     1.669000000    -0.134000000    -5.077000000
O    -5.788000000    -1.170000000    -0.563000000
H    -5.222000000    -0.744000000    -1.207000000
H    -6.561000000    -0.607000000    -0.514000000
O    -3.599000000    -2.434000000     5.151000000
H    -2.838000000    -2.728000000     5.651000000
H    -3.352000000    -2.569000000     4.236000000
O     1.828000000    -2.962000000    -2.736000000
H     1.439000000    -3.520000000    -2.063000000
H     1.094000000    -2.719000000    -3.299000000
O    -4.512000000    -4.042000000     0.388000000
H    -5.346000000    -4.320000000     0.767000000
H    -4.613000000    -4.194000000    -0.551000000
O     5.675000000     3.277000000     5.214000000
H     4.956000000     2.933000000     4.685000000
H     5.538000000     4.224000000     5.220000000
O     0.521000000     4.007000000    -2.709000000
H     0.627000000     4.566000000    -1.939000000
H     0.642000000     4.598000000    -3.452000000
O    -2.774000000     3.041000000     3.176000000
H    -2.445000000     2.475000000     3.875000000
H    -2.019000000     3.573000000     2.925000000
O    -1.127000000     3.732000000     6.707000000
H    -0.265000000     3.581000000     6.319000000
H    -1.744000000     3.379000000     6.066000000
O     2.072000000    -4.250000000    -6.230000000
H     1.333000000    -3.875000000    -5.750000000
H     2.624000000    -3.498000000    -6.446000000
O     0.570000000     1.266000000     6.740000000
H     0.522000000     1.669000000     5.873000000
H    -0.246000000     0.772000000     6.820000000
O     3.446000000    -5.519000000    -3.540000000
H     3.546000000    -4.571000000    -3.634000000
H     3.388000000    -5.844000000    -4.438000000
O    -2.399000000    -0.299000000    -4.706000000
H    -2.985000000    -0.970000000    -4.355000000
H    -2.469000000     0.427000000    -4.086000000
O    -4.005000000    -2.288000000    -3.913000000
H    -4.191000000    -2.853000000    -4.663000000
H    -3.944000000    -2.889000000    -3.170000000
