158
-3067.06230
C     0.813000000     1.241000000    -0.128000000
H     1.424000000     2.121000000    -0.313000000
C    -0.143000000     0.782000000    -1.032000000
H    -0.333000000     1.330000000    -1.951000000
C    -0.816000000    -0.412000000    -0.835000000
H    -1.554000000    -0.770000000    -1.579000000
C    -0.582000000    -1.132000000     0.334000000
H    -1.045000000    -2.100000000     0.507000000
C     0.348000000    -0.727000000     1.245000000
H     0.456000000    -1.335000000     2.140000000
C     1.077000000     0.491000000     1.025000000
C     2.021000000     0.969000000     2.087000000
O     2.547000000     2.073000000     1.894000000
O     2.274000000     0.348000000     3.099000000
O    -0.380000000     3.354000000     2.602000000
H     0.376000000     2.996000000     3.067000000
H     0.000000000     3.898000000     1.911000000
O     3.958000000     2.519000000    -3.288000000
H     3.151000000     2.097000000    -3.584000000
H     4.458000000     2.667000000    -4.091000000
O    -2.217000000     0.831000000     1.574000000
H    -1.657000000     0.323000000     0.987000000
H    -2.401000000     1.637000000     1.092000000
O    -3.207000000    -1.552000000    -3.882000000
H    -3.601000000    -1.098000000    -3.137000000
H    -3.421000000    -2.474000000    -3.740000000
O    -6.530000000    -0.789000000    -4.212000000
H    -5.651000000    -0.417000000    -4.287000000
H    -6.700000000    -0.813000000    -3.270000000
O     2.311000000     4.754000000    -2.842000000
H     2.675000000     3.905000000    -3.095000000
H     3.077000000     5.293000000    -2.642000000
O    -3.965000000     1.895000000    -6.239000000
H    -4.309000000     1.001000000    -6.248000000
H    -3.290000000     1.885000000    -5.561000000
O    -1.641000000     0.379000000     4.393000000
H    -0.826000000     0.724000000     4.758000000
H    -1.683000000     0.748000000     3.510000000
O    -3.176000000    -4.285000000    -4.250000000
H    -3.624000000    -5.130000000    -4.216000000
H    -3.266000000    -4.002000000    -5.160000000
O     5.615000000     2.160000000    -1.032000000
H     6.378000000     1.814000000    -1.495000000
H     4.945000000     2.252000000    -1.710000000
O    -1.916000000     3.872000000    -5.057000000
H    -1.124000000     4.206000000    -5.478000000
H    -1.866000000     4.201000000    -4.159000000
O    -1.939000000    -4.533000000     0.663000000
H    -1.163000000    -4.474000000     0.107000000
H    -1.613000000    -4.373000000     1.549000000
O    -4.832000000    -4.135000000     0.524000000
H    -3.915000000    -4.352000000     0.689000000
H    -4.867000000    -3.180000000     0.581000000
O     1.814000000    -3.151000000     5.332000000
H     1.037000000    -3.155000000     5.891000000
H     2.542000000    -3.001000000     5.934000000
O     4.589000000    -0.432000000    -2.276000000
H     3.825000000    -0.558000000    -1.714000000
H     4.228000000    -0.123000000    -3.107000000
O    -4.260000000    -0.858000000    -6.221000000
H    -3.725000000    -1.106000000    -5.467000000
H    -3.821000000    -1.262000000    -6.969000000
O    -2.801000000     2.385000000    -0.713000000
H    -2.119000000     2.936000000    -1.096000000
H    -3.619000000     2.741000000    -1.061000000
O     1.176000000    -1.491000000    -3.804000000
H     1.315000000    -2.234000000    -4.390000000
H     1.194000000    -1.872000000    -2.925000000
O     7.371000000     3.211000000     2.756000000
H     6.634000000     2.784000000     2.320000000
H     8.108000000     3.086000000     2.158000000
O     4.985000000    -4.221000000     2.641000000
H     5.356000000    -4.090000000     3.514000000
H     4.457000000    -3.438000000     2.486000000
O     4.356000000     0.507000000     5.008000000
H     5.277000000     0.718000000     4.855000000
H     3.917000000     0.742000000     4.191000000
O     0.397000000    -6.292000000    -0.240000000
H     0.936000000    -6.047000000     0.512000000
H     0.624000000    -7.207000000    -0.409000000
O     2.498000000    -1.463000000    -0.760000000
H     2.201000000    -2.370000000    -0.836000000
H     1.705000000    -0.968000000    -0.552000000
O     2.224000000    -4.795000000     1.366000000
H     2.601000000    -4.926000000     2.236000000
H     2.390000000    -3.873000000     1.170000000
O    -1.045000000     1.132000000    -7.431000000
H    -1.296000000     1.058000000    -6.510000000
H    -1.203000000     2.050000000    -7.649000000
O     3.622000000    -1.359000000     6.960000000
H     3.958000000    -0.976000000     6.149000000
H     3.387000000    -0.605000000     7.501000000
O     5.198000000     1.765000000     1.764000000
H     5.424000000     1.857000000     0.839000000
H     4.271000000     2.001000000     1.808000000
O    -1.565000000    -2.456000000     4.254000000
H    -1.699000000    -2.954000000     5.061000000
H    -1.184000000    -1.627000000     4.545000000
O    -1.164000000    -0.136000000    -4.944000000
H    -1.835000000    -0.583000000    -4.428000000
H    -0.349000000    -0.301000000    -4.472000000
O     3.795000000     2.845000000     6.976000000
H     3.310000000     2.280000000     7.577000000
H     4.212000000     2.240000000     6.362000000
O    -5.205000000     3.477000000    -1.404000000
H    -6.004000000     3.969000000    -1.212000000
H    -4.848000000     3.897000000    -2.187000000
O     0.686000000     0.991000000     5.230000000
H     1.027000000     1.885000000     5.268000000
H     1.239000000     0.551000000     4.584000000
O     6.943000000    -0.534000000     2.411000000
H     6.247000000    -1.143000000     2.658000000
H     6.522000000     0.081000000     1.810000000
O     3.609000000     5.509000000     4.033000000
H     3.441000000     5.383000000     3.099000000
H     3.148000000     6.319000000     4.252000000
O     3.642000000     4.449000000     1.386000000
H     3.294000000     3.561000000     1.304000000
H     4.493000000     4.414000000     0.950000000
O    -4.725000000    -0.409000000    -1.669000000
H    -4.328000000     0.439000000    -1.469000000
H    -5.046000000    -0.729000000    -0.825000000
O    -5.296000000     2.154000000     1.065000000
H    -4.827000000     2.827000000     1.559000000
H    -5.291000000     2.473000000     0.163000000
O     2.148000000     0.910000000    -4.345000000
H     2.325000000     0.975000000    -5.284000000
H     1.781000000     0.033000000    -4.232000000
O    -5.757000000    -1.156000000     0.987000000
H    -4.966000000    -1.161000000     1.526000000
H    -6.273000000    -0.425000000     1.327000000
O     1.133000000    -3.776000000    -4.989000000
H     0.521000000    -3.744000000    -5.725000000
H     0.703000000    -4.339000000    -4.345000000
O     1.195000000     5.466000000     0.943000000
H     0.976000000     6.084000000     0.247000000
H     2.147000000     5.373000000     0.891000000
O    -0.869000000     4.148000000    -2.141000000
H     0.001000000     3.887000000    -2.441000000
H    -0.705000000     4.845000000    -1.506000000
O     1.817000000     3.297000000     4.382000000
H     2.478000000     2.747000000     3.961000000
H     2.230000000     4.157000000     4.452000000
O    -0.804000000    -4.904000000    -3.311000000
H    -1.038000000    -5.830000000    -3.379000000
H    -1.640000000    -4.441000000    -3.367000000
O     0.904000000    -3.773000000    -1.622000000
H     0.286000000    -4.151000000    -2.249000000
H     0.985000000    -4.437000000    -0.937000000
O     3.319000000    -2.082000000     3.185000000
H     3.151000000    -1.141000000     3.129000000
H     2.963000000    -2.339000000     4.035000000
O     0.192000000    -1.435000000    -7.447000000
H     0.103000000    -1.194000000    -6.525000000
H    -0.207000000    -0.707000000    -7.924000000
O    -3.408000000    -1.726000000     2.364000000
H    -2.893000000    -2.106000000     3.075000000
H    -3.067000000    -0.836000000     2.271000000
