158
-3035.11745
C     1.313000000     0.831000000    -0.015000000
H     2.162000000     1.504000000    -0.104000000
C     0.413000000     0.645000000    -1.096000000
H     0.628000000     1.144000000    -2.037000000
C    -0.703000000    -0.150000000    -0.943000000
H    -1.327000000    -0.297000000    -1.836000000
C    -0.920000000    -0.909000000     0.194000000
H    -1.743000000    -1.606000000     0.324000000
C    -0.113000000    -0.618000000     1.247000000
H    -0.360000000    -1.066000000     2.207000000
C     0.994000000     0.223000000     1.181000000
C     1.824000000     0.433000000     2.412000000
O     2.792000000     1.129000000     2.343000000
O     1.292000000     0.267000000     3.489000000
O    -2.848000000     0.664000000     4.257000000
H    -2.227000000    -0.050000000     4.403000000
H    -2.370000000     1.288000000     3.710000000
O    -4.227000000     1.126000000    -6.833000000
H    -4.554000000     0.323000000    -6.428000000
H    -3.807000000     1.602000000    -6.116000000
O    -1.661000000    -1.885000000    -6.541000000
H    -2.461000000    -2.365000000    -6.328000000
H    -0.970000000    -2.346000000    -6.065000000
O    -3.413000000    -5.185000000    -3.900000000
H    -3.290000000    -5.537000000    -3.019000000
H    -2.870000000    -5.742000000    -4.458000000
O     4.792000000     3.724000000     6.282000000
H     4.272000000     2.974000000     5.994000000
H     5.582000000     3.337000000     6.660000000
O    -0.473000000     3.143000000    -3.875000000
H    -0.451000000     3.685000000    -3.087000000
H     0.447000000     3.002000000    -4.096000000
O    -0.150000000    -5.568000000    -0.525000000
H     0.245000000    -6.374000000    -0.857000000
H     0.543000000    -5.155000000    -0.010000000
O     3.261000000    -2.022000000     0.311000000
H     2.954000000    -1.123000000     0.425000000
H     2.868000000    -2.306000000    -0.514000000
O     6.104000000     2.795000000    -1.519000000
H     7.060000000     2.835000000    -1.496000000
H     5.882000000     2.038000000    -0.978000000
O     1.745000000    -4.215000000     1.562000000
H     2.079000000    -4.508000000     2.410000000
H     2.324000000    -3.494000000     1.313000000
O    -1.106000000    -3.342000000     3.964000000
H    -1.373000000    -3.604000000     3.083000000
H    -1.831000000    -3.617000000     4.525000000
O    -3.520000000     2.040000000     0.627000000
H    -2.618000000     2.345000000     0.723000000
H    -4.053000000     2.823000000     0.759000000
O    -4.509000000    -3.286000000     0.729000000
H    -5.295000000    -3.602000000     1.174000000
H    -4.609000000    -2.334000000     0.714000000
O     1.492000000    -1.923000000    -3.872000000
H     0.937000000    -2.199000000    -3.142000000
H     1.132000000    -2.379000000    -4.632000000
O    -2.038000000    -4.358000000     1.430000000
H    -2.840000000    -4.010000000     1.039000000
H    -1.562000000    -4.744000000     0.695000000
O     0.192000000    -3.102000000    -1.825000000
H    -0.122000000    -3.940000000    -1.486000000
H    -0.087000000    -2.460000000    -1.172000000
O    -0.171000000     0.663000000    -5.940000000
H    -0.558000000     1.311000000    -5.351000000
H    -0.316000000    -0.176000000    -5.501000000
O     6.579000000    -0.862000000     1.774000000
H     6.266000000    -1.767000000     1.769000000
H     7.341000000    -0.875000000     2.353000000
O     2.444000000     2.887000000    -4.569000000
H     3.243000000     3.148000000    -4.112000000
H     2.722000000     2.183000000    -5.155000000
O    -0.567000000     2.133000000     3.600000000
H    -0.746000000     2.704000000     2.853000000
H     0.134000000     1.556000000     3.297000000
O     3.728000000    -0.665000000    -2.839000000
H     4.108000000     0.042000000    -3.360000000
H     2.889000000    -0.849000000    -3.260000000
O     2.543000000    -1.941000000     4.466000000
H     1.971000000    -2.121000000     5.212000000
H     2.134000000    -1.198000000     4.024000000
O    -0.757000000    -0.713000000     4.753000000
H     0.041000000    -0.278000000     4.451000000
H    -0.764000000    -1.550000000     4.289000000
O     2.775000000     3.716000000     2.173000000
H     2.967000000     2.780000000     2.225000000
H     1.829000000     3.774000000     2.308000000
O    -4.097000000    -1.758000000    -2.200000000
H    -4.786000000    -1.347000000    -1.678000000
H    -3.564000000    -2.232000000    -1.562000000
O     4.606000000    -3.777000000     4.389000000
H     3.729000000    -3.395000000     4.378000000
H     5.138000000    -3.142000000     4.870000000
O     5.270000000     1.265000000     0.763000000
H     5.776000000     0.480000000     0.974000000
H     4.415000000     1.114000000     1.166000000
O    -4.779000000    -0.436000000     0.604000000
H    -4.157000000     0.291000000     0.584000000
H    -5.513000000    -0.110000000     1.124000000
O    -1.850000000    -1.763000000     7.295000000
H    -2.517000000    -1.130000000     7.561000000
H    -1.236000000    -1.256000000     6.764000000
O    -3.094000000     2.521000000    -4.731000000
H    -2.186000000     2.603000000    -4.439000000
H    -3.605000000     2.509000000    -3.921000000
O     1.769000000    -0.961000000     7.244000000
H     1.360000000    -0.596000000     8.028000000
H     2.084000000    -0.198000000     6.760000000
O    -3.873000000    -3.282000000    -6.040000000
H    -4.624000000    -3.710000000    -6.451000000
H    -3.676000000    -3.824000000    -5.277000000
O     3.882000000     5.330000000     4.094000000
H     3.532000000     4.675000000     3.491000000
H     4.161000000     4.827000000     4.859000000
O    -4.746000000    -0.879000000    -4.910000000
H    -4.428000000    -1.711000000    -5.262000000
H    -4.369000000    -0.832000000    -4.031000000
O    -0.643000000     3.480000000     5.867000000
H    -0.786000000     2.826000000     5.183000000
H    -0.783000000     4.319000000     5.429000000
O     5.062000000     0.954000000     3.888000000
H     5.774000000     1.496000000     3.548000000
H     4.495000000     0.802000000     3.132000000
O     2.584000000     5.307000000    -2.367000000
H     3.336000000     4.942000000    -2.834000000
H     2.315000000     6.058000000    -2.896000000
O    -3.948000000     3.045000000    -2.084000000
H    -4.148000000     3.825000000    -1.566000000
H    -3.928000000     2.332000000    -1.446000000
O     1.783000000     3.067000000     7.597000000
H     1.970000000     2.632000000     6.766000000
H     0.849000000     2.918000000     7.741000000
O    -5.843000000    -4.221000000    -3.067000000
H    -5.333000000    -4.935000000    -3.450000000
H    -5.186000000    -3.599000000    -2.753000000
O     2.956000000     0.182000000    -5.681000000
H     2.181000000    -0.201000000    -5.271000000
H     3.464000000    -0.571000000    -5.984000000
O    -1.888000000     0.162000000    -8.482000000
H    -2.662000000     0.678000000    -8.258000000
H    -1.538000000    -0.124000000    -7.638000000
O    -0.155000000     4.721000000    -1.059000000
H     0.740000000     5.040000000    -1.176000000
H    -0.575000000     5.382000000    -0.509000000
O    -0.833000000     2.971000000     0.639000000
H    -0.505000000     2.131000000     0.319000000
H    -0.514000000     3.611000000     0.004000000
O     0.046000000    -3.831000000    -5.525000000
H    -0.513000000    -4.603000000    -5.609000000
H     0.936000000    -4.166000000    -5.636000000
O     5.247000000    -1.251000000     5.673000000
H     6.194000000    -1.109000000     5.653000000
H     4.906000000    -0.684000000     4.980000000
O     4.797000000     4.557000000     0.613000000
H     5.229000000     3.853000000     0.129000000
H     4.057000000     4.132000000     1.047000000
O     2.881000000     1.716000000     5.355000000
H     3.615000000     1.126000000     5.185000000
H     2.197000000     1.428000000     4.750000000
