158
-3031.79662
C     0.956000000     0.985000000    -0.635000000
H     1.553000000     1.683000000    -1.216000000
C    -0.335000000     0.680000000    -1.034000000
H    -0.748000000     1.198000000    -1.896000000
C    -1.110000000    -0.297000000    -0.425000000
H    -2.050000000    -0.491000000    -0.862000000
C    -0.653000000    -0.913000000     0.701000000
H    -1.305000000    -1.624000000     1.202000000
C     0.578000000    -0.584000000     1.201000000
H     0.922000000    -1.057000000     2.117000000
C     1.434000000     0.387000000     0.616000000
C     2.791000000     0.845000000     1.222000000
O     3.342000000     1.824000000     0.793000000
O     3.258000000     0.237000000     2.145000000
O    -1.612000000     3.718000000    -5.382000000
H    -2.323000000     3.094000000    -5.530000000
H    -1.340000000     3.985000000    -6.260000000
O    -1.250000000     2.195000000     1.653000000
H    -1.087000000     1.462000000     1.059000000
H    -0.587000000     2.845000000     1.420000000
O    -7.782000000    -0.349000000     2.213000000
H    -7.172000000     0.076000000     2.816000000
H    -7.324000000    -0.354000000     1.373000000
O     4.536000000     4.787000000    -2.609000000
H     4.921000000     3.986000000    -2.253000000
H     5.270000000     5.243000000    -3.020000000
O    -4.014000000    -2.910000000    -2.788000000
H    -4.394000000    -2.352000000    -2.109000000
H    -4.511000000    -3.727000000    -2.731000000
O     5.266000000     2.125000000    -4.678000000
H     4.760000000     1.832000000    -3.921000000
H     4.635000000     2.600000000    -5.218000000
O     5.642000000    -1.058000000     0.165000000
H     5.649000000    -0.434000000     0.891000000
H     4.717000000    -1.153000000    -0.062000000
O    -2.679000000     1.558000000     4.761000000
H    -2.070000000     0.883000000     4.462000000
H    -2.936000000     2.019000000     3.962000000
O    -1.057000000     3.860000000    -2.762000000
H    -0.114000000     3.832000000    -2.603000000
H    -1.144000000     3.755000000    -3.710000000
O     3.683000000    -3.255000000    -1.390000000
H     4.037000000    -3.517000000    -2.240000000
H     2.957000000    -2.669000000    -1.604000000
O     2.167000000    -4.506000000     0.756000000
H     2.231000000    -4.045000000     1.592000000
H     2.559000000    -3.907000000     0.120000000
O    -1.631000000    -2.432000000     3.704000000
H    -1.121000000    -1.640000000     3.534000000
H    -0.979000000    -3.089000000     3.946000000
O     3.051000000     0.211000000    -3.348000000
H     2.642000000    -0.645000000    -3.220000000
H     2.540000000     0.618000000    -4.049000000
O    -5.010000000    -2.124000000    -6.230000000
H    -4.462000000    -1.811000000    -5.511000000
H    -5.341000000    -2.971000000    -5.929000000
O    -2.786000000     3.100000000    -0.887000000
H    -2.156000000     3.322000000    -1.573000000
H    -3.585000000     2.870000000    -1.361000000
O    -1.293000000    -2.039000000    -3.263000000
H    -1.349000000    -2.890000000    -3.697000000
H    -2.203000000    -1.801000000    -3.084000000
O     6.181000000     3.810000000     0.495000000
H     5.548000000     4.190000000     1.105000000
H     7.024000000     3.899000000     0.939000000
O    -1.876000000    -5.557000000     4.111000000
H    -1.992000000    -5.542000000     3.161000000
H    -0.990000000    -5.897000000     4.239000000
O    -2.076000000     6.147000000    -1.546000000
H    -2.680000000     6.541000000    -2.176000000
H    -1.640000000     5.450000000    -2.036000000
O     6.454000000    -2.654000000     3.181000000
H     6.135000000    -3.128000000     3.949000000
H     6.490000000    -1.739000000     3.462000000
O     1.792000000     3.936000000    -3.107000000
H     1.771000000     4.578000000    -3.816000000
H     2.663000000     4.034000000    -2.722000000
O     0.997000000     2.222000000     4.671000000
H     1.801000000     2.574000000     4.288000000
H     0.870000000     2.733000000     5.471000000
O     1.358000000    -1.769000000    -2.053000000
H     1.063000000    -1.142000000    -1.394000000
H     0.552000000    -2.085000000    -2.462000000
O     3.429000000    -2.730000000     2.641000000
H     4.286000000    -3.132000000     2.780000000
H     3.624000000    -1.813000000     2.445000000
O     1.440000000    -1.720000000     5.072000000
H     1.805000000    -2.595000000     4.937000000
H     2.180000000    -1.129000000     4.939000000
O    -4.987000000    -4.060000000     1.536000000
H    -4.460000000    -3.321000000     1.841000000
H    -4.427000000    -4.825000000     1.669000000
O     4.865000000     1.781000000    -1.616000000
H     4.418000000     1.002000000    -1.945000000
H     4.591000000     1.847000000    -0.701000000
O    -4.081000000    -1.553000000     2.777000000
H    -3.245000000    -1.846000000     3.140000000
H    -4.106000000    -0.614000000     2.961000000
O    -4.425000000     0.123000000    -4.481000000
H    -4.560000000    -0.109000000    -3.562000000
H    -4.758000000     1.018000000    -4.553000000
O     1.844000000     1.454000000    -5.387000000
H     1.053000000     0.956000000    -5.592000000
H     1.532000000     2.200000000    -4.875000000
O    -5.105000000     3.023000000    -2.280000000
H    -5.697000000     3.745000000    -2.066000000
H    -4.890000000     3.155000000    -3.204000000
O    -5.949000000    -2.223000000    -0.342000000
H    -5.472000000    -2.821000000     0.233000000
H    -6.658000000    -2.753000000    -0.705000000
O    -0.462000000    -0.074000000     4.028000000
H     0.124000000    -0.724000000     4.415000000
H    -0.098000000     0.768000000     4.299000000
O     5.735000000     1.565000000     2.389000000
H     5.911000000     2.263000000     1.757000000
H     4.860000000     1.252000000     2.162000000
O     2.912000000     4.610000000     0.346000000
H     3.136000000     3.685000000     0.455000000
H     3.186000000     4.818000000    -0.548000000
O    -5.478000000     0.288000000    -2.069000000
H    -5.452000000     1.229000000    -1.895000000
H    -5.593000000    -0.112000000    -1.208000000
O     2.199000000    -4.238000000     4.783000000
H     2.677000000    -4.494000000     5.572000000
H     2.841000000    -4.321000000     4.077000000
O    -3.915000000     2.290000000     2.235000000
H    -3.127000000     2.329000000     1.693000000
H    -4.284000000     3.172000000     2.183000000
O    -0.663000000    -0.036000000    -5.574000000
H    -1.483000000     0.225000000    -5.994000000
H    -0.879000000    -0.843000000    -5.108000000
O    -7.597000000     0.459000000    -4.059000000
H    -6.854000000     0.408000000    -3.458000000
H    -7.672000000     1.390000000    -4.269000000
O     2.850000000     6.863000000     1.603000000
H     2.790000000     6.012000000     1.169000000
H     2.313000000     6.768000000     2.390000000
O     0.212000000     4.316000000     0.771000000
H     1.154000000     4.439000000     0.657000000
H    -0.176000000     4.685000000    -0.022000000
O     6.325000000    -0.375000000     4.488000000
H     5.421000000    -0.066000000     4.436000000
H     6.512000000    -0.408000000     5.426000000
O    -2.885000000     4.972000000     1.027000000
H    -2.685000000     4.294000000     0.381000000
H    -2.984000000     5.772000000     0.511000000
O     3.090000000     3.183000000     3.365000000
H     3.089000000     2.791000000     2.491000000
H     3.685000000     3.929000000     3.292000000
O    -0.554000000    -5.052000000    -0.672000000
H     0.119000000    -4.627000000    -0.141000000
H    -1.368000000    -4.903000000    -0.192000000
O     3.675000000     0.290000000     4.780000000
H     3.499000000     0.577000000     3.884000000
H     4.037000000     1.064000000     5.212000000
O    -5.892000000     0.903000000     3.418000000
H    -5.767000000     1.242000000     4.305000000
H    -5.195000000     1.312000000     2.905000000
