158
-3029.08684
C     0.485000000    -0.567000000    -1.332000000
H     0.671000000    -1.039000000    -2.293000000
C    -0.676000000     0.151000000    -1.179000000
H    -1.341000000     0.450000000    -1.985000000
C    -1.026000000     0.650000000     0.086000000
H    -1.903000000     1.289000000     0.226000000
C    -0.216000000     0.435000000     1.180000000
H    -0.449000000     0.880000000     2.144000000
C     0.967000000    -0.273000000     0.986000000
H     1.597000000    -0.374000000     1.865000000
C     1.351000000    -0.805000000    -0.245000000
C     2.693000000    -1.560000000    -0.393000000
O     2.928000000    -2.160000000    -1.417000000
O     3.364000000    -1.675000000     0.607000000
O    -1.280000000    -3.561000000     3.234000000
H    -1.053000000    -4.475000000     3.061000000
H    -0.962000000    -3.086000000     2.467000000
O     5.100000000    -5.284000000     2.849000000
H     5.308000000    -4.468000000     2.392000000
H     5.515000000    -5.189000000     3.707000000
O    -2.804000000    -1.321000000    -5.534000000
H    -2.479000000    -1.031000000    -6.386000000
H    -2.538000000    -2.239000000    -5.475000000
O    -0.535000000     0.772000000    -6.568000000
H    -0.254000000     0.127000000    -7.217000000
H    -0.027000000     0.561000000    -5.785000000
O     2.255000000     3.548000000     2.494000000
H     2.946000000     3.236000000     1.911000000
H     2.004000000     4.399000000     2.136000000
O     2.420000000    -5.450000000    -4.101000000
H     2.790000000    -6.126000000    -3.532000000
H     2.217000000    -4.725000000    -3.510000000
O     4.728000000     1.226000000     1.607000000
H     5.671000000     1.125000000     1.477000000
H     4.334000000     0.602000000     0.998000000
O    -1.133000000     3.539000000    -2.411000000
H    -0.671000000     3.633000000    -1.578000000
H    -1.910000000     4.090000000    -2.319000000
O     3.095000000    -2.252000000     3.391000000
H     3.296000000    -1.448000000     3.869000000
H     3.182000000    -2.010000000     2.469000000
O     0.313000000     1.803000000    -3.961000000
H    -0.484000000     2.274000000    -3.716000000
H     1.021000000     2.306000000    -3.560000000
O     4.762000000    -4.036000000    -1.378000000
H     4.120000000    -3.371000000    -1.127000000
H     4.269000000    -4.856000000    -1.381000000
O     6.885000000    -4.517000000    -3.117000000
H     6.119000000    -4.318000000    -2.579000000
H     7.315000000    -5.242000000    -2.662000000
O     7.396000000    -0.653000000    -1.542000000
H     6.460000000    -0.591000000    -1.732000000
H     7.744000000     0.210000000    -1.767000000
O    -1.523000000    -3.838000000    -5.413000000
H    -0.878000000    -3.143000000    -5.548000000
H    -1.764000000    -3.765000000    -4.490000000
O     1.326000000     2.200000000     4.442000000
H     0.461000000     2.306000000     4.045000000
H     1.939000000     2.439000000     3.748000000
O     1.774000000    -2.301000000     6.659000000
H     1.957000000    -1.549000000     6.096000000
H     0.821000000    -2.385000000     6.646000000
O    -3.763000000    -2.568000000     0.739000000
H    -4.266000000    -2.292000000     1.505000000
H    -4.078000000    -2.008000000     0.030000000
O     0.483000000    -2.237000000    -5.584000000
H     1.287000000    -1.937000000    -5.161000000
H     0.406000000    -1.692000000    -6.367000000
O    -0.114000000    -0.392000000     4.893000000
H    -0.647000000    -0.029000000     4.186000000
H     0.473000000     0.322000000     5.141000000
O    -5.714000000    -0.469000000     2.476000000
H    -6.581000000    -0.868000000     2.413000000
H    -5.884000000     0.472000000     2.506000000
O     5.240000000    -2.712000000     4.926000000
H     5.110000000    -1.782000000     5.110000000
H     4.392000000    -3.011000000     4.597000000
O     0.741000000    -5.876000000     0.761000000
H     1.558000000    -6.366000000     0.852000000
H     0.874000000    -5.089000000     1.289000000
O     0.750000000    -4.140000000    -2.059000000
H     1.025000000    -4.389000000    -1.177000000
H     1.334000000    -3.421000000    -2.298000000
O    -1.878000000    -4.165000000    -2.641000000
H    -0.959000000    -4.221000000    -2.379000000
H    -2.357000000    -4.083000000    -1.816000000
O     4.752000000    -0.693000000    -2.548000000
H     4.170000000    -1.248000000    -2.029000000
H     4.258000000     0.118000000    -2.675000000
O    -1.046000000    -2.569000000     0.553000000
H    -1.993000000    -2.629000000     0.426000000
H    -0.793000000    -1.767000000     0.096000000
O    -2.193000000     4.883000000     2.264000000
H    -2.995000000     4.645000000     1.797000000
H    -2.222000000     5.838000000     2.318000000
O     3.665000000    -0.051000000     4.887000000
H     4.502000000     0.377000000     4.706000000
H     3.056000000     0.671000000     5.044000000
O     6.366000000     0.349000000     4.138000000
H     6.556000000    -0.327000000     3.487000000
H     6.937000000     1.079000000     3.899000000
O     2.890000000    -1.378000000    -4.560000000
H     3.193000000    -1.866000000    -3.794000000
H     3.183000000    -0.480000000    -4.404000000
O     7.247000000    -1.977000000     2.935000000
H     6.636000000    -2.217000000     3.631000000
H     6.893000000    -2.394000000     2.150000000
O    -4.755000000     3.935000000     0.712000000
H    -5.294000000     4.712000000     0.563000000
H    -5.178000000     3.248000000     0.196000000
O    -6.665000000     2.064000000     2.967000000
H    -6.792000000     2.960000000     3.280000000
H    -6.561000000     2.154000000     2.020000000
O     5.513000000    -3.058000000     1.177000000
H     4.710000000    -2.574000000     0.982000000
H     5.665000000    -3.594000000     0.398000000
O    -3.496000000     4.767000000    -2.534000000
H    -3.339000000     5.294000000    -1.750000000
H    -4.272000000     5.160000000    -2.934000000
O    -4.394000000     0.290000000    -3.882000000
H    -3.886000000     1.096000000    -3.977000000
H    -3.816000000    -0.398000000    -4.213000000
O     3.681000000     1.735000000    -3.258000000
H     3.855000000     2.511000000    -3.791000000
H     2.726000000     1.665000000    -3.242000000
O    -4.637000000    -1.247000000    -1.405000000
H    -4.104000000    -0.612000000    -1.883000000
H    -5.511000000    -1.162000000    -1.786000000
O    -0.960000000    -2.740000000     5.900000000
H    -1.192000000    -3.098000000     5.043000000
H    -0.769000000    -1.817000000     5.730000000
O    -3.936000000    -2.376000000     4.119000000
H    -4.142000000    -1.630000000     3.555000000
H    -3.201000000    -2.808000000     3.685000000
O     6.696000000    -1.862000000    -4.282000000
H     7.131000000    -2.588000000    -3.834000000
H     6.045000000    -1.549000000    -3.654000000
O    -6.708000000     1.778000000     0.187000000
H    -6.301000000     1.121000000    -0.378000000
H    -7.647000000     1.606000000     0.118000000
O    -3.477000000     2.798000000    -4.303000000
H    -4.035000000     3.538000000    -4.542000000
H    -3.019000000     3.088000000    -3.514000000
O    -0.165000000     3.804000000     0.535000000
H    -0.900000000     3.791000000     1.148000000
H     0.083000000     2.884000000     0.440000000
O     4.357000000     2.710000000     4.094000000
H     3.678000000     3.208000000     3.639000000
H     4.678000000     2.089000000     3.440000000
O     1.198000000     5.996000000     1.157000000
H     0.755000000     6.788000000     0.852000000
H     0.627000000     5.280000000     0.877000000
O    -1.189000000     2.855000000     3.825000000
H    -1.773000000     2.752000000     4.577000000
H    -1.662000000     3.441000000     3.234000000
O     1.504000000    -4.365000000     2.825000000
H     1.431000000    -5.001000000     3.537000000
H     2.043000000    -3.662000000     3.186000000
