158
-3013.64863
C     0.279000000    -1.020000000    -1.062000000
H     0.359000000    -1.869000000    -1.736000000
C    -1.001000000    -0.647000000    -0.536000000
H    -1.865000000    -1.226000000    -0.851000000
C    -1.160000000     0.352000000     0.372000000
H    -2.140000000     0.584000000     0.748000000
C    -0.056000000     1.093000000     0.773000000
H    -0.191000000     1.845000000     1.547000000
C     1.219000000     0.708000000     0.279000000
H     2.100000000     1.269000000     0.581000000
C     1.423000000    -0.335000000    -0.643000000
C     2.871000000    -0.787000000    -1.028000000
O     3.140000000    -1.703000000    -1.734000000
O     3.757000000    -0.156000000    -0.470000000
O    -0.928000000    -3.507000000     0.200000000
H    -1.098000000    -2.630000000     0.544000000
H    -0.104000000    -3.770000000     0.610000000
O     6.654000000    -2.614000000    -1.752000000
H     6.326000000    -1.718000000    -1.672000000
H     6.581000000    -2.975000000    -0.868000000
O    -6.173000000     3.615000000     1.451000000
H    -5.419000000     3.198000000     1.868000000
H    -6.522000000     4.203000000     2.121000000
O     4.856000000    -2.154000000    -6.504000000
H     4.256000000    -1.739000000    -5.884000000
H     4.295000000    -2.437000000    -7.227000000
O    -6.292000000    -3.297000000    -2.247000000
H    -7.189000000    -3.237000000    -1.919000000
H    -5.797000000    -2.686000000    -1.701000000
O     8.205000000    -0.038000000    -0.140000000
H     8.941000000    -0.523000000    -0.513000000
H     7.696000000     0.246000000    -0.899000000
O     2.427000000     4.069000000     0.843000000
H     3.027000000     4.803000000     0.715000000
H     1.588000000     4.384000000     0.507000000
O    -4.990000000    -0.104000000     4.837000000
H    -4.729000000     0.418000000     4.079000000
H    -4.248000000    -0.041000000     5.439000000
O     6.325000000     2.861000000    -0.348000000
H     7.271000000     2.952000000    -0.237000000
H     6.144000000     3.262000000    -1.199000000
O     0.428000000     3.095000000    -2.404000000
H     0.389000000     2.789000000    -1.498000000
H     1.352000000     3.302000000    -2.546000000
O     2.853000000    -1.493000000     2.160000000
H     3.399000000    -1.153000000     1.451000000
H     3.423000000    -2.100000000     2.632000000
O    -0.119000000    -0.822000000    -5.510000000
H     0.493000000    -0.604000000    -4.807000000
H     0.324000000    -1.510000000    -6.008000000
O     5.921000000     0.062000000    -2.107000000
H     5.626000000     0.242000000    -2.999000000
H     5.128000000     0.122000000    -1.575000000
O    -6.263000000    -2.228000000     3.952000000
H    -5.897000000    -1.392000000     4.242000000
H    -6.579000000    -2.056000000     3.065000000
O    -2.631000000    -0.592000000     6.166000000
H    -1.894000000    -1.120000000     6.472000000
H    -2.349000000    -0.259000000     5.313000000
O     1.380000000     4.217000000     3.606000000
H     0.565000000     4.711000000     3.523000000
H     1.615000000     3.989000000     2.707000000
O    -3.236000000    -4.468000000    -0.764000000
H    -3.822000000    -3.770000000    -0.470000000
H    -2.434000000    -4.336000000    -0.260000000
O     2.238000000     0.765000000     3.827000000
H     3.181000000     0.859000000     3.695000000
H     1.919000000     0.376000000     3.012000000
O    -4.690000000    -2.624000000     0.528000000
H    -5.404000000    -2.852000000     1.124000000
H    -4.732000000    -1.671000000     0.458000000
O     6.169000000    -3.281000000     0.919000000
H     5.624000000    -3.736000000     1.561000000
H     6.057000000    -2.353000000     1.125000000
O     3.802000000    -4.217000000    -2.190000000
H     4.754000000    -4.151000000    -2.266000000
H     3.510000000    -3.315000000    -2.056000000
O     3.450000000    -6.486000000    -0.193000000
H     4.004000000    -5.798000000    -0.560000000
H     2.781000000    -6.637000000    -0.861000000
O     5.114000000     0.738000000    -4.649000000
H     4.415000000     0.103000000    -4.805000000
H     4.701000000     1.589000000    -4.792000000
O     1.865000000    -3.831000000     0.138000000
H     2.399000000    -3.284000000    -0.439000000
H     1.390000000    -4.413000000    -0.456000000
O    -2.582000000     3.744000000     0.322000000
H    -2.666000000     3.341000000    -0.542000000
H    -1.734000000     4.188000000     0.297000000
O    -0.179000000     2.709000000     5.319000000
H    -0.784000000     2.072000000     4.940000000
H     0.306000000     3.055000000     4.570000000
O     5.194000000     0.844000000     3.657000000
H     5.441000000     0.231000000     2.966000000
H     5.163000000     1.696000000     3.222000000
O    -2.333000000    -5.430000000    -3.033000000
H    -2.060000000    -6.317000000    -2.801000000
H    -2.683000000    -5.066000000    -2.220000000
O     0.401000000    -5.699000000    -0.818000000
H     0.209000000    -6.626000000    -0.675000000
H    -0.401000000    -5.246000000    -0.560000000
O     3.163000000    -1.074000000    -4.394000000
H     3.131000000    -1.375000000    -3.486000000
H     2.611000000    -0.292000000    -4.406000000
O    -0.001000000    -2.279000000     3.015000000
H     0.272000000    -2.623000000     3.865000000
H     0.811000000    -2.203000000     2.514000000
O    -3.328000000     3.056000000    -2.074000000
H    -3.300000000     2.692000000    -2.959000000
H    -4.069000000     3.662000000    -2.087000000
O    -5.556000000     4.554000000    -1.456000000
H    -6.320000000     5.093000000    -1.664000000
H    -5.789000000     4.115000000    -0.638000000
O    -5.078000000    -0.030000000     0.791000000
H    -4.739000000     0.861000000     0.878000000
H    -5.893000000     0.071000000     0.298000000
O     5.843000000    -0.533000000     1.271000000
H     5.111000000    -0.409000000     0.667000000
H     6.591000000    -0.135000000     0.825000000
O     0.190000000     5.418000000    -0.194000000
H     0.243000000     5.821000000    -1.061000000
H     0.272000000     6.151000000     0.416000000
O     1.654000000     1.110000000    -4.332000000
H     1.454000000     1.522000000    -3.492000000
H     1.313000000     1.719000000    -4.986000000
O    -5.238000000    -0.531000000    -2.996000000
H    -5.258000000     0.164000000    -3.655000000
H    -4.391000000    -0.958000000    -3.125000000
O    -3.618000000     2.398000000     2.538000000
H    -3.735000000     3.078000000     3.201000000
H    -3.140000000     2.832000000     1.831000000
O     2.761000000    -5.562000000    -4.718000000
H     3.382000000    -5.789000000    -5.410000000
H     3.244000000    -4.961000000    -4.150000000
O     3.467000000     2.705000000    -1.201000000
H     3.286000000     3.330000000    -0.499000000
H     3.949000000     1.997000000    -0.774000000
O    -2.992000000    -2.759000000     3.591000000
H    -3.362000000    -2.499000000     2.747000000
H    -2.070000000    -2.508000000     3.536000000
O    -6.963000000     0.306000000    -1.081000000
H    -6.219000000     0.466000000    -1.661000000
H    -7.560000000     1.035000000    -1.249000000
O     2.793000000     4.880000000    -2.781000000
H     3.076000000     4.990000000    -3.689000000
H     3.178000000     4.046000000    -2.510000000
O    -1.994000000     0.516000000     3.772000000
H    -1.677000000    -0.095000000     3.106000000
H    -2.575000000     1.108000000     3.296000000
O     5.144000000     2.946000000     2.034000000
H     4.299000000     3.331000000     1.801000000
H     5.589000000     2.821000000     1.196000000
O    -4.162000000     3.962000000     4.520000000
H    -4.941000000     3.988000000     5.075000000
H    -3.841000000     4.863000000     4.514000000
O    -0.763000000     5.853000000     3.283000000
H    -0.361000000     6.707000000     3.440000000
H    -1.627000000     6.057000000     2.925000000
