158
-3030.04622
C     0.119000000    -0.716000000    -1.358000000
H     0.205000000    -1.240000000    -2.306000000
C    -1.090000000    -0.245000000    -0.809000000
H    -2.048000000    -0.344000000    -1.312000000
C    -1.067000000     0.300000000     0.478000000
H    -1.979000000     0.653000000     0.911000000
C     0.156000000     0.475000000     1.194000000
H     0.266000000     0.909000000     2.184000000
C     1.324000000     0.043000000     0.596000000
H     2.213000000     0.061000000     1.222000000
C     1.320000000    -0.542000000    -0.646000000
C     2.663000000    -0.851000000    -1.258000000
O     2.688000000    -1.816000000    -1.993000000
O     3.570000000    -0.136000000    -1.222000000
O    -1.222000000    -5.321000000    -1.668000000
H    -1.863000000    -4.832000000    -1.151000000
H    -0.401000000    -5.225000000    -1.185000000
O     6.168000000    -3.699000000     0.331000000
H     5.381000000    -4.143000000     0.649000000
H     5.901000000    -2.785000000     0.226000000
O    -7.547000000     0.421000000     2.774000000
H    -6.978000000     0.990000000     3.293000000
H    -7.548000000    -0.411000000     3.247000000
O    -4.715000000     0.257000000     0.681000000
H    -4.279000000     0.255000000    -0.170000000
H    -5.636000000     0.092000000     0.479000000
O     4.766000000    -2.359000000    -6.327000000
H     4.025000000    -2.005000000    -5.835000000
H     4.849000000    -3.261000000    -6.019000000
O    -2.880000000     0.054000000    -6.453000000
H    -3.527000000    -0.652000000    -6.450000000
H    -2.185000000    -0.255000000    -5.872000000
O     8.249000000     1.244000000    -0.532000000
H     7.296000000     1.328000000    -0.525000000
H     8.456000000     0.786000000     0.283000000
O    -4.668000000     1.549000000     5.815000000
H    -5.455000000     2.002000000     5.512000000
H    -4.347000000     1.082000000     5.044000000
O     0.417000000     2.981000000    -0.696000000
H     0.404000000     2.085000000    -0.359000000
H     0.511000000     2.879000000    -1.643000000
O     1.905000000    -1.605000000     4.541000000
H     2.624000000    -2.037000000     4.082000000
H     1.460000000    -2.311000000     5.010000000
O    -0.760000000    -1.490000000    -5.241000000
H    -0.381000000    -2.277000000    -4.848000000
H    -0.184000000    -1.291000000    -5.980000000
O     5.669000000    -1.260000000    -2.993000000
H     5.786000000    -0.490000000    -3.549000000
H     4.868000000    -1.080000000    -2.500000000
O    -4.843000000     4.692000000     1.609000000
H    -3.981000000     4.600000000     1.203000000
H    -5.462000000     4.521000000     0.899000000
O    -0.960000000     4.051000000    -3.250000000
H    -0.497000000     4.575000000    -2.596000000
H    -1.488000000     3.440000000    -2.736000000
O    -2.546000000    -3.445000000    -0.132000000
H    -1.699000000    -3.007000000    -0.046000000
H    -3.062000000    -3.113000000     0.602000000
O     1.425000000    -3.866000000    -4.537000000
H     2.243000000    -4.351000000    -4.431000000
H     1.696000000    -2.951000000    -4.610000000
O     1.867000000     1.179000000     4.518000000
H     1.954000000     1.605000000     3.666000000
H     1.931000000     0.243000000     4.327000000
O    -3.948000000    -2.201000000     1.912000000
H    -4.802000000    -2.633000000     1.943000000
H    -4.154000000    -1.274000000     1.790000000
O     3.816000000    -3.320000000     3.495000000
H     4.751000000    -3.466000000     3.641000000
H     3.737000000    -3.203000000     2.548000000
O     5.543000000    -1.161000000     1.521000000
H     5.930000000    -1.269000000     2.390000000
H     5.317000000    -0.232000000     1.473000000
O     4.197000000    -3.927000000    -2.533000000
H     5.069000000    -3.539000000    -2.606000000
H     3.668000000    -3.248000000    -2.113000000
O     3.729000000    -6.268000000    -1.163000000
H     3.970000000    -5.583000000    -1.786000000
H     3.497000000    -5.794000000    -0.364000000
O     5.794000000     1.192000000    -4.016000000
H     5.999000000     1.320000000    -4.942000000
H     5.371000000     2.009000000    -3.749000000
O     1.179000000    -3.861000000    -0.518000000
H     1.440000000    -3.273000000    -1.226000000
H     2.006000000    -4.155000000    -0.134000000
O     1.385000000     3.355000000     2.338000000
H     1.194000000     3.966000000     1.627000000
H     2.221000000     3.656000000     2.695000000
O     0.955000000     3.561000000     6.006000000
H     1.343000000     2.807000000     5.562000000
H     0.159000000     3.216000000     6.412000000
O     4.388000000     1.363000000     1.955000000
H     4.688000000     1.597000000     1.077000000
H     4.148000000     2.198000000     2.357000000
O    -1.044000000    -4.152000000    -4.025000000
H    -1.258000000    -4.543000000    -3.178000000
H    -0.089000000    -4.094000000    -4.028000000
O     2.765000000    -1.339000000    -4.960000000
H     2.835000000    -1.354000000    -4.005000000
H     2.247000000    -0.558000000    -5.150000000
O    -0.214000000    -2.460000000     1.917000000
H     0.049000000    -1.658000000     1.467000000
H     0.274000000    -3.154000000     1.474000000
O    -2.638000000     2.587000000    -1.790000000
H    -3.134000000     1.776000000    -1.673000000
H    -3.248000000     3.280000000    -1.536000000
O    -4.422000000     4.669000000    -1.937000000
H    -4.261000000     5.277000000    -2.659000000
H    -5.152000000     5.056000000    -1.455000000
O    -3.537000000     1.071000000     3.378000000
H    -2.754000000     1.493000000     3.024000000
H    -4.240000000     1.334000000     2.784000000
O     5.460000000     1.413000000    -0.551000000
H     4.764000000     0.833000000    -0.859000000
H     5.676000000     1.953000000    -1.311000000
O    -5.013000000    -0.861000000    -4.206000000
H    -4.260000000    -1.247000000    -4.652000000
H    -5.671000000    -1.556000000    -4.201000000
O     1.085000000     0.839000000    -4.424000000
H     1.447000000     0.967000000    -3.547000000
H     0.702000000     1.686000000    -4.651000000
O    -4.726000000     0.520000000    -1.942000000
H    -5.646000000     0.396000000    -1.708000000
H    -4.677000000     0.265000000    -2.863000000
O    -1.304000000     2.689000000     3.075000000
H    -1.745000000     3.031000000     2.296000000
H    -0.372000000     2.815000000     2.897000000
O     3.741000000     3.254000000    -5.104000000
H     3.003000000     3.475000000    -5.671000000
H     3.339000000     3.023000000    -4.266000000
O     4.019000000    -4.902000000    -5.085000000
H     4.830000000    -5.361000000    -5.304000000
H     4.058000000    -4.787000000    -4.136000000
O     3.004000000     2.252000000    -2.575000000
H     3.065000000     2.878000000    -1.853000000
H     3.228000000     1.409000000    -2.181000000
O    -2.006000000    -2.318000000     3.966000000
H    -2.644000000    -2.401000000     3.258000000
H    -1.159000000    -2.467000000     3.544000000
O    -7.202000000    -0.551000000    -0.138000000
H    -7.479000000    -0.169000000     0.695000000
H    -7.865000000    -0.263000000    -0.765000000
O    -0.442000000     0.468000000     5.907000000
H    -0.991000000     0.261000000     5.152000000
H     0.433000000     0.595000000     5.540000000
O    -3.429000000    -2.618000000    -5.405000000
H    -3.808000000    -3.053000000    -4.642000000
H    -2.536000000    -2.400000000    -5.137000000
O    -2.911000000     3.978000000     5.052000000
H    -3.746000000     3.516000000     4.986000000
H    -2.349000000     3.552000000     4.405000000
O    -2.218000000     4.253000000     0.763000000
H    -1.856000000     5.104000000     0.516000000
H    -1.708000000     3.620000000     0.258000000
O     3.188000000    -4.910000000     1.085000000
H     2.406000000    -5.096000000     1.604000000
H     3.898000000    -5.348000000     1.554000000
