158
-3065.16252
C     0.735000000    -0.894000000    -0.902000000
H     1.192000000    -1.488000000    -1.689000000
C    -0.438000000    -0.181000000    -1.200000000
H    -0.957000000    -0.323000000    -2.144000000
C    -1.026000000     0.647000000    -0.256000000
H    -1.878000000     1.265000000    -0.442000000
C    -0.466000000     0.626000000     0.981000000
H    -1.079000000     1.015000000     1.790000000
C     0.681000000    -0.055000000     1.300000000
H     1.046000000    -0.106000000     2.323000000
C     1.360000000    -0.800000000     0.340000000
C     2.741000000    -1.326000000     0.608000000
O     3.330000000    -1.911000000    -0.304000000
O     3.338000000    -1.063000000     1.639000000
O    -2.312000000     6.378000000    -0.910000000
H    -3.109000000     6.890000000    -1.050000000
H    -1.893000000     6.347000000    -1.770000000
O     2.953000000    -5.870000000     1.670000000
H     2.796000000    -5.086000000     2.196000000
H     3.418000000    -5.551000000     0.896000000
O    -2.892000000    -3.600000000    -6.030000000
H    -2.478000000    -2.875000000    -5.561000000
H    -2.198000000    -3.952000000    -6.587000000
O    -1.086000000    -3.336000000    -2.052000000
H    -0.979000000    -2.747000000    -1.305000000
H    -1.681000000    -4.017000000    -1.736000000
O     6.453000000    -0.444000000     3.581000000
H     5.929000000    -0.787000000     4.305000000
H     6.345000000    -1.088000000     2.882000000
O     0.756000000     1.726000000     4.794000000
H     0.777000000     2.548000000     4.304000000
H     1.611000000     1.328000000     4.631000000
O    -3.551000000     3.331000000     5.217000000
H    -3.761000000     3.607000000     4.325000000
H    -3.970000000     2.475000000     5.307000000
O    -8.162000000     0.128000000     0.724000000
H    -8.431000000     0.931000000     1.169000000
H    -7.206000000     0.180000000     0.692000000
O     0.531000000    -3.891000000     0.854000000
H    -0.001000000    -3.104000000     0.972000000
H     0.336000000    -4.429000000     1.622000000
O     5.912000000    -2.137000000     1.563000000
H     5.006000000    -1.832000000     1.521000000
H     6.149000000    -2.312000000     0.652000000
O     5.860000000    -0.800000000    -3.813000000
H     5.682000000     0.110000000    -3.574000000
H     6.480000000    -0.740000000    -4.540000000
O     2.880000000    -3.656000000     3.131000000
H     1.963000000    -3.526000000     3.374000000
H     3.184000000    -2.787000000     2.870000000
O    -3.916000000    -3.701000000    -1.280000000
H    -3.829000000    -3.571000000    -0.336000000
H    -4.854000000    -3.611000000    -1.449000000
O    -1.345000000    -0.122000000     4.295000000
H    -0.969000000    -0.774000000     4.886000000
H    -0.699000000     0.584000000     4.275000000
O     1.221000000    -4.760000000    -1.812000000
H     0.912000000    -4.558000000    -0.929000000
H     0.667000000    -4.231000000    -2.386000000
O     1.221000000     1.542000000    -3.670000000
H     2.162000000     1.400000000    -3.776000000
H     0.853000000     0.661000000    -3.596000000
O    -1.542000000    -2.182000000     1.364000000
H    -2.473000000    -2.376000000     1.257000000
H    -1.469000000    -1.245000000     1.185000000
O    -0.119000000    -2.857000000     3.781000000
H    -0.856000000    -3.321000000     4.178000000
H    -0.508000000    -2.368000000     3.055000000
O    -5.326000000    -0.581000000    -1.877000000
H    -5.672000000    -1.426000000    -2.164000000
H    -4.901000000    -0.219000000    -2.654000000
O     6.198000000    -4.498000000     3.137000000
H     5.897000000    -3.636000000     2.850000000
H     5.968000000    -5.084000000     2.416000000
O     3.952000000    -4.315000000    -0.693000000
H     3.221000000    -4.767000000    -1.114000000
H     3.628000000    -3.426000000    -0.541000000
O     3.550000000    -2.387000000    -3.383000000
H     4.034000000    -3.000000000    -2.830000000
H     4.074000000    -1.586000000    -3.370000000
O     5.902000000    -1.383000000    -1.026000000
H     4.963000000    -1.367000000    -0.844000000
H     5.966000000    -1.244000000    -1.971000000
O     4.857000000     2.056000000     5.682000000
H     4.263000000     2.650000000     5.223000000
H     4.833000000     1.249000000     5.168000000
O    -3.724000000    -0.138000000    -4.357000000
H    -4.245000000    -0.602000000    -5.013000000
H    -2.946000000    -0.683000000    -4.241000000
O     6.288000000    -5.524000000     0.170000000
H     7.066000000    -5.036000000    -0.098000000
H     5.564000000    -5.088000000    -0.280000000
O    -1.267000000    -1.909000000    -4.502000000
H    -0.382000000    -1.583000000    -4.666000000
H    -1.207000000    -2.348000000    -3.654000000
O     5.004000000     1.462000000     2.032000000
H     5.622000000     1.104000000     2.670000000
H     4.457000000     0.717000000     1.784000000
O    -5.489000000     0.935000000     0.510000000
H    -5.243000000     0.470000000    -0.290000000
H    -4.695000000     0.928000000     1.045000000
O     5.248000000    -2.061000000     5.475000000
H     4.528000000    -2.300000000     6.058000000
H     6.004000000    -1.965000000     6.055000000
O     1.369000000    -1.159000000    -4.488000000
H     1.915000000    -1.659000000    -3.881000000
H     1.973000000    -0.871000000    -5.172000000
O    -6.102000000     2.890000000    -1.282000000
H    -5.276000000     3.072000000    -1.729000000
H    -5.872000000     2.252000000    -0.606000000
O    -3.650000000     1.150000000     2.811000000
H    -4.375000000     0.955000000     3.406000000
H    -2.868000000     0.873000000     3.288000000
O     4.482000000    -5.007000000     5.178000000
H     5.166000000    -5.260000000     4.558000000
H     4.169000000    -4.161000000     4.856000000
O    -1.795000000     3.690000000    -1.494000000
H    -2.349000000     4.471000000    -1.484000000
H    -2.355000000     3.004000000    -1.856000000
O     5.311000000     1.679000000    -2.996000000
H     4.815000000     1.784000000    -2.184000000
H     4.996000000     2.384000000    -3.562000000
O    -3.430000000     2.333000000    -3.087000000
H    -3.543000000     1.508000000    -3.561000000
H    -3.342000000     2.993000000    -3.774000000
O    -0.925000000     4.848000000     1.310000000
H    -1.670000000     4.563000000     1.839000000
H    -1.247000000     4.822000000     0.409000000
O    -5.629000000     5.079000000     1.467000000
H    -6.066000000     4.671000000     0.720000000
H    -5.817000000     6.013000000     1.373000000
O    -7.622000000     0.673000000    -4.026000000
H    -6.753000000     0.853000000    -3.669000000
H    -7.468000000     0.506000000    -4.956000000
O     3.810000000     1.963000000    -0.966000000
H     4.311000000     1.427000000    -0.351000000
H     3.022000000     2.209000000    -0.483000000
O    -2.454000000     3.449000000    -5.244000000
H    -1.848000000     2.848000000    -5.678000000
H    -2.013000000     4.298000000    -5.278000000
O     0.726000000     3.910000000    -2.429000000
H    -0.182000000     3.837000000    -2.136000000
H     0.882000000     3.108000000    -2.928000000
O     1.633000000     2.717000000     0.389000000
H     1.080000000     3.494000000     0.474000000
H     1.053000000     2.050000000     0.020000000
O     1.112000000     3.827000000     2.971000000
H     1.793000000     3.614000000     2.334000000
H     0.522000000     4.417000000     2.503000000
O    -3.510000000     3.847000000     2.416000000
H    -4.366000000     4.171000000     2.135000000
H    -3.543000000     2.906000000     2.247000000
O     7.720000000     1.370000000     0.608000000
H     8.444000000     0.890000000     1.009000000
H     7.070000000     0.698000000     0.405000000
O     3.495000000     0.074000000     4.127000000
H     3.199000000    -0.173000000     3.251000000
H     3.614000000    -0.759000000     4.583000000
