158
-3051.91960
C    -0.940000000    -0.320000000    -1.096000000
H    -1.766000000    -0.744000000    -1.659000000
C    -0.484000000    -1.181000000    -0.097000000
H    -1.031000000    -2.099000000     0.099000000
C     0.337000000    -0.766000000     0.958000000
H     0.583000000    -1.324000000     1.835000000
C     0.986000000     0.486000000     0.827000000
H     1.681000000     0.793000000     1.605000000
C     0.624000000     1.262000000    -0.305000000
H     1.041000000     2.225000000    -0.589000000
C    -0.389000000     0.932000000    -1.215000000
C    -0.828000000     1.852000000    -2.383000000
O    -1.577000000     1.461000000    -3.276000000
O    -0.223000000     2.881000000    -2.586000000
O     0.736000000    -4.202000000    -3.277000000
H    -0.006000000    -4.253000000    -2.675000000
H     0.703000000    -3.310000000    -3.623000000
O     2.370000000    -2.038000000     3.591000000
H     2.407000000    -1.092000000     3.738000000
H     3.099000000    -2.389000000     4.102000000
O     2.995000000    -0.093000000    -1.542000000
H     3.810000000     0.262000000    -1.188000000
H     2.333000000     0.129000000    -0.888000000
O     0.638000000     0.620000000    -6.666000000
H     1.093000000    -0.057000000    -7.168000000
H     1.255000000     0.859000000    -5.974000000
O    -2.150000000    -4.248000000     6.304000000
H    -1.273000000    -4.299000000     6.684000000
H    -2.045000000    -3.690000000     5.534000000
O     6.486000000    -3.129000000     2.498000000
H     5.772000000    -3.063000000     1.864000000
H     6.972000000    -2.311000000     2.399000000
O     0.404000000    -3.582000000     4.801000000
H     0.184000000    -4.218000000     4.120000000
H     0.846000000    -2.873000000     4.332000000
O     1.263000000    -6.202000000     3.024000000
H     1.338000000    -6.845000000     3.728000000
H     2.134000000    -6.179000000     2.627000000
O     1.361000000     3.803000000     3.500000000
H     0.575000000     4.335000000     3.620000000
H     2.076000000     4.438000000     3.461000000
O     4.867000000    -1.899000000     4.627000000
H     5.366000000    -2.051000000     3.825000000
H     5.103000000    -2.631000000     5.198000000
O     2.971000000     3.627000000    -5.388000000
H     2.360000000     4.215000000    -4.944000000
H     3.650000000     4.205000000    -5.735000000
O    -1.799000000     1.047000000     1.706000000
H    -2.066000000     1.963000000     1.628000000
H    -0.971000000     0.997000000     1.229000000
O    -4.917000000    -0.396000000    -4.850000000
H    -4.051000000    -0.799000000    -4.907000000
H    -5.219000000    -0.347000000    -5.757000000
O    -0.751000000    -4.461000000     1.880000000
H    -0.301000000    -5.264000000     2.145000000
H    -0.232000000    -4.126000000     1.149000000
O    -3.655000000    -3.370000000    -0.177000000
H    -3.630000000    -2.775000000     0.572000000
H    -4.010000000    -2.841000000    -0.891000000
O    -2.145000000    -6.978000000    -1.690000000
H    -2.231000000    -6.027000000    -1.756000000
H    -1.322000000    -7.112000000    -1.220000000
O     1.354000000    -1.545000000    -3.425000000
H     2.103000000    -1.276000000    -2.893000000
H     0.818000000    -0.755000000    -3.500000000
O     2.980000000     3.464000000     0.834000000
H     2.567000000     3.983000000     0.145000000
H     2.443000000     3.624000000     1.610000000
O     3.845000000     0.161000000     6.302000000
H     3.302000000     0.242000000     5.518000000
H     3.596000000    -0.683000000     6.680000000
O    -1.897000000    -4.233000000    -2.378000000
H    -2.283000000    -3.893000000    -3.186000000
H    -2.439000000    -3.864000000    -1.681000000
O     4.769000000     1.959000000    -0.149000000
H     5.159000000     2.498000000    -0.838000000
H     4.101000000     2.520000000     0.244000000
O    -2.309000000    -1.053000000    -4.152000000
H    -2.012000000    -0.145000000    -4.103000000
H    -1.837000000    -1.419000000    -4.900000000
O     5.314000000    -0.271000000     0.951000000
H     5.185000000     0.494000000     0.390000000
H     5.829000000     0.058000000     1.688000000
O    -6.809000000    -0.044000000    -1.113000000
H    -7.232000000     0.535000000    -1.748000000
H    -6.036000000    -0.376000000    -1.569000000
O     1.006000000    -3.698000000    -0.346000000
H     0.719000000    -4.101000000    -1.165000000
H     1.051000000    -2.762000000    -0.543000000
O    -3.461000000    -1.036000000     1.761000000
H    -4.309000000    -0.593000000     1.738000000
H    -2.822000000    -0.338000000     1.619000000
O    -2.524000000    -2.696000000     3.855000000
H    -2.103000000    -3.271000000     3.216000000
H    -2.593000000    -1.852000000     3.409000000
O     1.889000000     1.537000000    -4.337000000
H     1.254000000     1.900000000    -3.719000000
H     2.426000000     2.285000000    -4.596000000
O    -4.101000000     1.120000000     3.749000000
H    -3.259000000     0.696000000     3.582000000
H    -4.449000000     1.314000000     2.878000000
O     2.798000000    -5.162000000     0.859000000
H     3.367000000    -4.449000000     1.149000000
H     1.973000000    -4.733000000     0.634000000
O     0.912000000     4.901000000    -4.535000000
H     0.360000000     4.134000000    -4.683000000
H     0.718000000     5.166000000    -3.636000000
O    -3.328000000    -5.988000000     1.438000000
H    -2.404000000    -6.165000000     1.617000000
H    -3.319000000    -5.206000000     0.887000000
O    -4.392000000     3.094000000    -0.727000000
H    -4.478000000     2.297000000    -1.250000000
H    -3.510000000     3.413000000    -0.921000000
O     1.517000000     4.474000000    -1.641000000
H     1.128000000     5.327000000    -1.833000000
H     0.927000000     3.843000000    -2.052000000
O     2.018000000    -4.014000000     6.887000000
H     2.716000000    -4.528000000     6.480000000
H     1.306000000    -4.027000000     6.247000000
O    -1.147000000     0.627000000     4.769000000
H    -1.654000000     1.373000000     5.089000000
H    -1.270000000     0.643000000     3.820000000
O     6.379000000     1.705000000     2.706000000
H     5.767000000     2.356000000     2.364000000
H     7.222000000     1.941000000     2.319000000
O    -1.467000000     3.013000000    -5.497000000
H    -1.279000000     2.354000000    -6.166000000
H    -1.716000000     2.506000000    -4.725000000
O    -0.112000000    -1.231000000     6.534000000
H    -0.574000000    -0.664000000     5.917000000
H     0.248000000    -1.933000000     5.992000000
O    -2.092000000     4.397000000    -1.362000000
H    -1.421000000     4.053000000    -1.952000000
H    -2.242000000     5.292000000    -1.667000000
O    -4.167000000    -1.865000000    -2.535000000
H    -3.456000000    -1.383000000    -2.958000000
H    -4.905000000    -1.783000000    -3.139000000
O    -2.009000000     5.534000000    -6.608000000
H    -1.774000000     4.641000000    -6.355000000
H    -1.246000000     6.060000000    -6.366000000
O     2.079000000     0.949000000     4.518000000
H     2.248000000     1.556000000     3.797000000
H     1.256000000     1.255000000     4.901000000
O    -4.183000000     1.331000000    -2.687000000
H    -3.357000000     1.708000000    -2.990000000
H    -4.447000000     0.737000000    -3.389000000
O     0.072000000     6.703000000    -2.626000000
H     0.491000000     7.555000000    -2.743000000
H    -0.845000000     6.853000000    -2.857000000
O    -1.910000000     0.074000000    -7.271000000
H    -1.669000000    -0.525000000    -7.977000000
H    -1.083000000     0.476000000    -7.004000000
O    -2.733000000     3.977000000     2.028000000
H    -3.656000000     4.180000000     2.184000000
H    -2.519000000     4.444000000     1.221000000
O     3.977000000    -2.641000000     1.020000000
H     3.366000000    -2.366000000     1.703000000
H     4.459000000    -1.844000000     0.795000000
