158
-3014.52296
C     0.055000000    -0.496000000    -1.393000000
H    -0.009000000    -0.949000000    -2.379000000
C    -0.277000000    -1.181000000    -0.220000000
H    -0.704000000    -2.178000000    -0.301000000
C    -0.218000000    -0.631000000     1.014000000
H    -0.500000000    -1.240000000     1.876000000
C     0.235000000     0.699000000     1.166000000
H     0.287000000     1.093000000     2.178000000
C     0.574000000     1.448000000     0.041000000
H     0.942000000     2.464000000     0.158000000
C     0.404000000     0.842000000    -1.203000000
C     0.736000000     1.635000000    -2.467000000
O     0.884000000     1.079000000    -3.551000000
O     0.749000000     2.819000000    -2.478000000
O     2.952000000    -1.155000000     4.212000000
H     2.582000000    -0.780000000     3.413000000
H     3.822000000    -1.459000000     3.954000000
O     3.849000000    -0.626000000    -1.684000000
H     4.201000000     0.252000000    -1.541000000
H     4.572000000    -1.213000000    -1.463000000
O     1.933000000     2.284000000    -7.738000000
H     2.826000000     1.963000000    -7.860000000
H     1.885000000     2.515000000    -6.811000000
O    -0.872000000    -0.485000000     6.347000000
H    -1.208000000    -0.690000000     7.219000000
H    -0.140000000    -1.089000000     6.223000000
O     3.745000000    -4.089000000     2.778000000
H     2.950000000    -4.487000000     3.132000000
H     3.641000000    -3.153000000     2.948000000
O     1.182000000    -2.191000000     6.105000000
H     1.718000000    -2.570000000     6.801000000
H     1.781000000    -2.095000000     5.365000000
O     1.661000000    -5.227000000     3.694000000
H     1.742000000    -6.136000000     3.983000000
H     0.931000000    -5.237000000     3.075000000
O     2.350000000     4.750000000     2.277000000
H     3.095000000     5.320000000     2.087000000
H     1.611000000     5.349000000     2.383000000
O     5.718000000     1.024000000    -3.565000000
H     5.289000000     1.563000000    -4.230000000
H     5.492000000     1.442000000    -2.735000000
O     3.963000000     6.364000000    -2.565000000
H     4.386000000     5.506000000    -2.538000000
H     3.025000000     6.169000000    -2.553000000
O    -2.531000000     1.252000000     2.772000000
H    -1.936000000     1.429000000     2.043000000
H    -2.998000000     2.076000000     2.905000000
O    -1.049000000    -6.884000000     1.709000000
H    -0.318000000    -7.185000000     2.249000000
H    -0.880000000    -5.952000000     1.575000000
O    -3.377000000    -1.868000000    -0.800000000
H    -2.636000000    -1.654000000    -0.234000000
H    -3.592000000    -1.044000000    -1.236000000
O     5.259000000     3.879000000    -3.937000000
H     5.204000000     4.264000000    -4.811000000
H     4.370000000     3.950000000    -3.587000000
O    -0.102000000     5.710000000     2.956000000
H    -0.496000000     4.917000000     2.591000000
H    -0.845000000     6.291000000     3.122000000
O    -0.369000000    -2.996000000    -5.163000000
H     0.053000000    -2.138000000    -5.210000000
H    -0.538000000    -3.230000000    -6.076000000
O     2.973000000    -0.573000000    -4.262000000
H     3.373000000    -0.863000000    -3.442000000
H     2.117000000    -0.232000000    -4.004000000
O     3.268000000     3.979000000    -0.157000000
H     2.387000000     4.055000000     0.210000000
H     3.748000000     4.718000000     0.216000000
O    -1.906000000     3.995000000     5.103000000
H    -2.156000000     4.044000000     4.181000000
H    -2.069000000     4.876000000     5.442000000
O    -4.546000000    -4.239000000    -0.562000000
H    -5.415000000    -4.132000000    -0.949000000
H    -4.036000000    -3.509000000    -0.912000000
O    -2.521000000    -3.192000000    -3.292000000
H    -1.829000000    -3.002000000    -3.925000000
H    -2.486000000    -2.462000000    -2.673000000
O     4.852000000     1.804000000    -0.902000000
H     5.516000000     1.883000000    -0.217000000
H     4.245000000     2.525000000    -0.731000000
O    -0.161000000     0.287000000    -5.885000000
H     0.109000000     0.419000000    -4.976000000
H     0.326000000     0.949000000    -6.377000000
O    -4.617000000    -3.368000000     6.102000000
H    -4.111000000    -3.393000000     5.290000000
H    -4.258000000    -2.624000000     6.586000000
O     2.435000000    -4.936000000    -2.565000000
H     2.198000000    -4.273000000    -3.214000000
H     1.610000000    -5.376000000    -2.359000000
O     3.142000000    -1.053000000    -6.964000000
H     2.415000000    -1.674000000    -6.922000000
H     3.182000000    -0.671000000    -6.087000000
O    -3.201000000    -3.518000000     3.854000000
H    -2.762000000    -2.671000000     3.944000000
H    -2.613000000    -4.139000000     4.283000000
O    -1.364000000    -5.075000000     4.998000000
H    -1.829000000    -5.136000000     5.833000000
H    -0.497000000    -5.438000000     5.180000000
O     2.244000000     3.253000000    -5.225000000
H     1.991000000     2.703000000    -4.484000000
H     1.564000000     3.925000000    -5.268000000
O    -5.803000000     0.135000000     4.020000000
H    -4.909000000    -0.167000000     3.862000000
H    -6.356000000    -0.524000000     3.599000000
O    -2.655000000    -6.451000000    -0.593000000
H    -2.364000000    -6.618000000     0.303000000
H    -3.239000000    -5.696000000    -0.519000000
O     0.564000000    -4.532000000     0.890000000
H     1.045000000    -3.712000000     1.000000000
H     1.171000000    -5.106000000     0.422000000
O    -2.934000000    -0.743000000     4.526000000
H    -2.916000000    -0.072000000     3.844000000
H    -2.164000000    -0.559000000     5.064000000
O     0.341000000     4.966000000    -6.035000000
H    -0.085000000     5.049000000    -6.888000000
H    -0.266000000     5.383000000    -5.423000000
O    -4.020000000     3.036000000     0.214000000
H    -3.288000000     2.421000000     0.155000000
H    -4.800000000     2.483000000     0.177000000
O     1.397000000     5.461000000    -2.575000000
H     0.630000000     5.644000000    -2.034000000
H     1.400000000     4.508000000    -2.673000000
O     0.406000000     2.196000000     5.376000000
H    -0.315000000     2.825000000     5.388000000
H     0.022000000     1.385000000     5.712000000
O    -1.322000000     3.200000000    -4.190000000
H    -0.632000000     2.915000000    -3.591000000
H    -0.877000000     3.312000000    -5.030000000
O    -1.158000000     4.062000000     0.043000000
H    -0.650000000     3.633000000    -0.646000000
H    -1.129000000     4.992000000    -0.181000000
O    -4.204000000     0.179000000    -2.178000000
H    -5.041000000     0.509000000    -1.851000000
H    -4.059000000     0.658000000    -2.994000000
O    -3.226000000     5.047000000    -4.843000000
H    -2.691000000     4.391000000    -4.396000000
H    -2.726000000     5.859000000    -4.765000000
O     2.571000000     2.540000000     3.798000000
H     2.355000000     3.250000000     3.192000000
H     1.736000000     2.307000000     4.202000000
O    -3.844000000     2.021000000    -4.391000000
H    -2.966000000     2.404000000    -4.368000000
H    -4.136000000     2.148000000    -5.294000000
O    -0.442000000     6.666000000    -0.745000000
H    -0.624000000     7.069000000     0.104000000
H    -0.963000000     7.173000000    -1.367000000
O    -1.812000000    -0.446000000    -7.915000000
H    -1.192000000    -0.665000000    -8.611000000
H    -1.272000000    -0.369000000    -7.129000000
O    -2.360000000     4.257000000     2.382000000
H    -3.304000000     4.125000000     2.473000000
H    -2.199000000     4.198000000     1.440000000
O     2.607000000    -2.428000000     0.576000000
H     2.260000000    -1.695000000     0.067000000
H     3.550000000    -2.404000000     0.418000000
O    -5.081000000    -4.448000000     2.178000000
H    -4.581000000    -3.875000000     2.758000000
H    -4.829000000    -4.176000000     1.296000000
