158
-3024.58242
C    -0.024000000    -0.970000000    -1.129000000
H     0.131000000    -1.872000000    -1.714000000
C    -0.869000000    -0.974000000    -0.025000000
H    -1.502000000    -1.840000000     0.152000000
C    -0.842000000     0.031000000     0.932000000
H    -1.643000000     0.039000000     1.709000000
C     0.125000000     1.034000000     0.786000000
H     0.192000000     1.801000000     1.554000000
C     1.018000000     1.060000000    -0.330000000
H     1.765000000     1.846000000    -0.404000000
C     0.945000000     0.044000000    -1.299000000
C     1.997000000     0.001000000    -2.398000000
O     1.905000000    -0.851000000    -3.285000000
O     2.893000000     0.796000000    -2.423000000
O     0.945000000    -5.492000000    -4.197000000
H     0.958000000    -4.565000000    -4.433000000
H     1.816000000    -5.661000000    -3.839000000
O     2.121000000    -3.799000000     0.730000000
H     2.216000000    -2.850000000     0.645000000
H     2.948000000    -4.090000000     1.112000000
O     5.882000000    -2.844000000    -1.253000000
H     5.396000000    -2.665000000    -2.058000000
H     5.510000000    -3.663000000    -0.926000000
O     3.792000000    -0.869000000    -7.605000000
H     3.715000000    -0.797000000    -6.654000000
H     2.888000000    -0.875000000    -7.919000000
O    -1.000000000     3.904000000     5.930000000
H    -0.224000000     3.439000000     6.243000000
H    -1.715000000     3.277000000     6.039000000
O     2.918000000     4.194000000    -1.349000000
H     3.684000000     3.645000000    -1.519000000
H     3.242000000     5.090000000    -1.435000000
O    -5.134000000     0.009000000    -1.907000000
H    -5.802000000    -0.665000000    -2.038000000
H    -4.809000000     0.199000000    -2.787000000
O    -0.422000000    -4.551000000     1.956000000
H    -0.433000000    -3.728000000     2.443000000
H     0.371000000    -4.503000000     1.423000000
O     5.624000000     3.671000000    -0.209000000
H     5.414000000     4.328000000     0.455000000
H     6.568000000     3.759000000    -0.342000000
O     0.425000000     3.957000000    -5.391000000
H    -0.127000000     3.970000000    -4.609000000
H     1.318000000     3.898000000    -5.052000000
O    -3.074000000     5.822000000     3.980000000
H    -2.658000000     6.546000000     3.512000000
H    -2.679000000     5.035000000     3.604000000
O     3.988000000    -0.310000000    -4.820000000
H     4.868000000    -0.037000000    -4.561000000
H     3.471000000    -0.247000000    -4.017000000
O    -4.541000000    -3.078000000     4.221000000
H    -4.279000000    -2.994000000     3.305000000
H    -5.195000000    -2.390000000     4.348000000
O    -2.966000000     2.254000000     7.157000000
H    -2.802000000     1.724000000     6.377000000
H    -3.786000000     2.710000000     6.968000000
O     0.249000000     4.378000000     1.600000000
H    -0.588000000     4.187000000     1.176000000
H     0.063000000     5.121000000     2.173000000
O    -1.136000000    -5.655000000    -1.903000000
H    -0.643000000    -5.800000000    -1.095000000
H    -0.661000000    -4.955000000    -2.351000000
O     0.940000000     1.807000000     4.804000000
H     0.008000000     1.588000000     4.815000000
H     1.247000000     1.504000000     3.950000000
O    -4.200000000    -3.125000000     1.510000000
H    -4.339000000    -2.194000000     1.332000000
H    -4.541000000    -3.570000000     0.735000000
O    -3.364000000    -1.019000000     5.887000000
H    -4.220000000    -0.602000000     5.983000000
H    -3.556000000    -1.872000000     5.497000000
O     1.756000000    -4.033000000     4.432000000
H     1.805000000    -4.746000000     3.794000000
H     1.110000000    -3.429000000     4.066000000
O     3.203000000    -1.378000000     0.934000000
H     3.771000000    -0.833000000     0.390000000
H     3.783000000    -1.729000000     1.610000000
O     4.065000000    -2.953000000    -4.987000000
H     4.074000000    -1.996000000    -4.982000000
H     3.550000000    -3.192000000    -4.216000000
O     3.326000000    -5.868000000    -3.119000000
H     4.173000000    -6.244000000    -3.358000000
H     3.535000000    -4.990000000    -2.798000000
O     5.691000000     3.196000000    -5.499000000
H     5.827000000     4.143000000    -5.486000000
H     4.882000000     3.063000000    -5.006000000
O     2.729000000    -3.249000000    -2.219000000
H     2.393000000    -2.468000000    -2.658000000
H     2.541000000    -3.101000000    -1.292000000
O    -2.380000000     1.707000000    -1.228000000
H    -2.976000000     0.958000000    -1.226000000
H    -1.550000000     1.354000000    -0.909000000
O    -1.993000000     1.163000000     4.355000000
H    -2.092000000     0.404000000     4.930000000
H    -2.855000000     1.273000000     3.952000000
O     4.590000000     2.005000000     2.993000000
H     5.483000000     2.262000000     2.762000000
H     4.036000000     2.501000000     2.390000000
O     6.541000000     0.487000000    -4.062000000
H     7.135000000     0.574000000    -3.317000000
H     6.944000000     1.012000000    -4.753000000
O     0.545000000    -2.775000000    -4.486000000
H     1.052000000    -2.038000000    -4.146000000
H     0.344000000    -2.531000000    -5.389000000
O     2.414000000     4.637000000     4.209000000
H     1.808000000     5.106000000     3.635000000
H     2.087000000     3.738000000     4.218000000
O     2.302000000     0.315000000     2.979000000
H     2.051000000    -0.150000000     2.181000000
H     3.153000000     0.701000000     2.773000000
O    -4.601000000    -0.474000000     1.185000000
H    -4.412000000     0.240000000     1.794000000
H    -4.794000000    -0.037000000     0.356000000
O     4.875000000     0.947000000    -0.503000000
H     4.497000000     0.756000000    -1.362000000
H     4.628000000     1.855000000    -0.329000000
O    -1.386000000     3.034000000    -3.262000000
H    -0.766000000     3.516000000    -2.714000000
H    -1.981000000     2.616000000    -2.639000000
O    -0.745000000     0.419000000    -5.639000000
H    -0.028000000     0.749000000    -6.181000000
H    -0.912000000     1.122000000    -5.010000000
O    -3.730000000     2.106000000     2.140000000
H    -4.512000000     2.370000000     1.655000000
H    -3.018000000     2.597000000     1.731000000
O     1.022000000     1.852000000    -7.062000000
H     1.117000000     2.674000000    -7.542000000
H     1.428000000     2.022000000    -6.212000000
O     2.641000000     2.236000000    -4.853000000
H     2.494000000     2.117000000    -3.914000000
H     3.236000000     1.525000000    -5.094000000
O    -3.866000000    -5.552000000    -2.012000000
H    -2.925000000    -5.395000000    -1.933000000
H    -4.054000000    -5.417000000    -2.941000000
O    -2.823000000    -5.672000000     1.772000000
H    -3.456000000    -4.971000000     1.614000000
H    -2.010000000    -5.216000000     1.990000000
O     0.111000000     4.149000000    -1.237000000
H     0.102000000     3.972000000    -0.296000000
H     1.041000000     4.184000000    -1.464000000
O    -0.021000000    -2.020000000     4.392000000
H    -0.449000000    -2.297000000     5.202000000
H     0.313000000    -1.144000000     4.586000000
O     2.874000000     3.420000000     1.369000000
H     1.990000000     3.787000000     1.395000000
H     3.095000000     3.394000000     0.438000000
O    -6.041000000     3.226000000    -0.043000000
H    -6.905000000     3.435000000     0.311000000
H    -6.106000000     2.308000000    -0.308000000
O    -2.313000000     3.848000000     0.678000000
H    -2.260000000     3.322000000    -0.120000000
H    -3.096000000     4.385000000     0.559000000
O     1.428000000    -5.720000000    -0.931000000
H     1.440000000    -5.167000000    -1.711000000
H     1.604000000    -5.118000000    -0.208000000
O    -0.839000000    -2.103000000     6.961000000
H    -0.855000000    -2.726000000     7.687000000
H    -1.742000000    -1.791000000     6.893000000
