158
-3027.24388
C    -0.790000000     0.125000000    -1.306000000
H    -1.412000000     0.189000000    -2.195000000
C    -1.338000000    -0.147000000    -0.055000000
H    -2.393000000    -0.283000000     0.170000000
C    -0.489000000    -0.215000000     1.080000000
H    -0.920000000    -0.412000000     2.056000000
C     0.869000000    -0.145000000     0.942000000
H     1.520000000    -0.265000000     1.804000000
C     1.362000000     0.112000000    -0.288000000
H     2.443000000     0.112000000    -0.405000000
C     0.571000000     0.368000000    -1.403000000
C     1.273000000     0.450000000    -2.764000000
O     0.612000000     0.448000000    -3.723000000
O     2.438000000     0.543000000    -2.821000000
O     6.082000000     1.018000000    -4.633000000
H     6.556000000     1.845000000    -4.720000000
H     5.320000000     1.234000000    -4.096000000
O     2.591000000     3.967000000    -4.811000000
H     2.858000000     4.815000000    -5.165000000
H     1.634000000     3.989000000    -4.832000000
O    -0.997000000     0.084000000     5.792000000
H    -0.967000000    -0.851000000     5.589000000
H    -1.739000000     0.176000000     6.389000000
O    -5.867000000     1.740000000    -0.625000000
H    -6.673000000     2.162000000    -0.328000000
H    -6.125000000     1.255000000    -1.408000000
O    -5.303000000     2.957000000     1.811000000
H    -5.345000000     3.875000000     1.543000000
H    -5.336000000     2.466000000     0.990000000
O     6.587000000    -2.278000000    -2.090000000
H     5.822000000    -1.894000000    -2.520000000
H     6.479000000    -3.221000000    -2.207000000
O     0.399000000    -3.651000000    -0.302000000
H    -0.518000000    -3.384000000    -0.242000000
H     0.580000000    -4.077000000     0.536000000
O     3.194000000     2.242000000    -6.708000000
H     2.625000000     1.472000000    -6.699000000
H     3.005000000     2.690000000    -5.883000000
O     3.734000000    -4.601000000    -0.831000000
H     3.431000000    -3.802000000    -0.401000000
H     3.496000000    -4.483000000    -1.751000000
O     0.950000000     4.751000000    -1.752000000
H     0.501000000     4.552000000    -0.931000000
H     1.714000000     4.173000000    -1.753000000
O     2.786000000    -2.318000000     0.473000000
H     3.454000000    -1.669000000     0.251000000
H     1.972000000    -1.818000000     0.517000000
O     2.985000000     2.856000000     0.314000000
H     3.626000000     3.374000000     0.803000000
H     2.138000000     3.131000000     0.664000000
O     4.531000000    -0.387000000     1.605000000
H     5.313000000    -0.765000000     2.008000000
H     4.846000000     0.403000000     1.166000000
O    -3.584000000     1.412000000     2.963000000
H    -4.321000000     1.757000000     2.458000000
H    -3.922000000     0.611000000     3.363000000
O    -2.821000000    -2.948000000     5.525000000
H    -1.977000000    -2.877000000     5.078000000
H    -2.604000000    -2.887000000     6.456000000
O     1.216000000    -3.806000000     2.543000000
H     1.765000000    -4.585000000     2.635000000
H     1.705000000    -3.238000000     1.949000000
O    -4.845000000    -1.451000000    -1.329000000
H    -4.947000000    -1.441000000    -0.377000000
H    -5.383000000    -0.722000000    -1.635000000
O    -3.670000000    -0.522000000    -7.095000000
H    -3.535000000    -1.211000000    -7.746000000
H    -2.961000000    -0.646000000    -6.465000000
O    -1.915000000     3.824000000     2.171000000
H    -2.472000000     3.049000000     2.247000000
H    -2.188000000     4.387000000     2.896000000
O     1.629000000    -2.964000000    -5.537000000
H     0.961000000    -2.675000000    -6.159000000
H     1.246000000    -2.791000000    -4.677000000
O     1.712000000    -0.337000000    -6.012000000
H     2.363000000    -0.950000000    -5.670000000
H     1.331000000     0.067000000    -5.232000000
O    -1.518000000     2.735000000     4.899000000
H    -1.333000000     1.882000000     5.294000000
H    -2.062000000     2.533000000     4.138000000
O    -3.451000000    -3.669000000    -2.350000000
H    -4.131000000    -4.238000000    -2.710000000
H    -3.927000000    -3.049000000    -1.796000000
O    -1.688000000    -3.481000000    -4.706000000
H    -2.170000000    -4.255000000    -4.997000000
H    -2.090000000    -3.249000000    -3.870000000
O    -1.491000000    -0.552000000    -4.948000000
H    -0.611000000    -0.414000000    -4.596000000
H    -1.607000000    -1.502000000    -4.935000000
O    -0.153000000     0.990000000    -8.414000000
H    -0.185000000     1.452000000    -7.577000000
H    -0.076000000     1.685000000    -9.068000000
O    -1.204000000    -4.877000000     3.340000000
H    -0.967000000    -5.776000000     3.115000000
H    -0.388000000    -4.385000000     3.253000000
O     0.774000000    -3.079000000    -2.886000000
H     0.020000000    -2.496000000    -2.967000000
H     0.853000000    -3.238000000    -1.945000000
O     1.415000000    -1.681000000    -8.476000000
H     1.160000000    -1.256000000    -9.295000000
H     1.234000000    -1.027000000    -7.801000000
O    -2.713000000    -3.209000000     1.791000000
H    -2.670000000    -3.839000000     1.072000000
H    -2.049000000    -3.507000000     2.412000000
O    -0.095000000    -2.391000000     4.918000000
H     0.470000000    -2.250000000     4.158000000
H     0.420000000    -2.951000000     5.499000000
O     4.120000000     2.374000000    -3.251000000
H     3.633000000     3.030000000    -3.750000000
H     3.464000000     1.718000000    -3.014000000
O    -4.591000000    -0.883000000     4.265000000
H    -5.428000000    -0.734000000     4.704000000
H    -4.210000000    -1.632000000     4.724000000
O     1.894000000     3.122000000     4.106000000
H     1.046000000     2.694000000     3.990000000
H     1.713000000     4.053000000     3.974000000
O     6.116000000    -1.949000000    -5.465000000
H     5.675000000    -1.721000000    -4.647000000
H     6.554000000    -1.141000000    -5.734000000
O     5.247000000     1.516000000    -0.276000000
H     5.400000000     1.429000000    -1.217000000
H     4.384000000     1.927000000    -0.210000000
O     1.766000000    -0.190000000     6.360000000
H     2.111000000    -0.501000000     5.523000000
H     0.818000000    -0.153000000     6.231000000
O    -0.061000000     3.042000000    -3.848000000
H     0.475000000     2.260000000    -3.721000000
H     0.169000000     3.612000000    -3.114000000
O    -5.792000000     0.784000000    -3.352000000
H    -5.886000000     0.284000000    -4.163000000
H    -4.942000000     1.216000000    -3.435000000
O    -5.018000000    -1.587000000     1.611000000
H    -4.336000000    -2.232000000     1.794000000
H    -5.030000000    -1.023000000     2.385000000
O     1.808000000     3.097000000     6.936000000
H     1.217000000     2.926000000     7.669000000
H     1.277000000     2.934000000     6.157000000
O    -0.733000000     3.068000000    -6.582000000
H    -0.899000000     3.089000000    -5.640000000
H    -1.565000000     2.792000000    -6.966000000
O     2.990000000    -1.639000000     3.996000000
H     3.519000000    -1.170000000     3.351000000
H     3.329000000    -2.534000000     3.979000000
O    -3.194000000     1.479000000    -4.030000000
H    -2.879000000     2.106000000    -3.379000000
H    -2.407000000     1.017000000    -4.318000000
O     5.711000000     4.742000000    -2.297000000
H     6.266000000     5.029000000    -1.572000000
H     5.477000000     3.840000000    -2.078000000
O     0.104000000     3.130000000     0.504000000
H     0.015000000     2.201000000     0.292000000
H    -0.624000000     3.311000000     1.098000000
O     4.209000000    -1.520000000    -3.326000000
H     3.574000000    -2.233000000    -3.379000000
H     3.690000000    -0.755000000    -3.079000000
O    -2.469000000    -4.985000000    -0.170000000
H    -2.859000000    -4.513000000    -0.906000000
H    -2.322000000    -5.870000000    -0.504000000
