158
-3027.74704
C    -0.433000000    -0.444000000    -1.314000000
H    -0.807000000    -0.789000000    -2.274000000
C    -1.228000000    -0.394000000    -0.179000000
H    -2.288000000    -0.632000000    -0.206000000
C    -0.702000000     0.051000000     1.023000000
H    -1.322000000     0.198000000     1.945000000
C     0.611000000     0.376000000     1.081000000
H     1.035000000     0.737000000     2.014000000
C     1.437000000     0.386000000    -0.069000000
H     2.484000000     0.675000000    -0.027000000
C     0.881000000     0.013000000    -1.303000000
C     1.807000000     0.081000000    -2.473000000
O     1.554000000    -0.510000000    -3.504000000
O     2.839000000     0.802000000    -2.434000000
O     6.900000000    -0.179000000     2.158000000
H     6.418000000     0.576000000     2.495000000
H     6.534000000    -0.326000000     1.286000000
O    -6.505000000    -1.936000000     2.526000000
H    -6.913000000    -2.318000000     3.303000000
H    -7.219000000    -1.864000000     1.893000000
O     0.601000000     1.128000000    -6.975000000
H     0.321000000     1.870000000    -6.439000000
H     0.502000000     1.433000000    -7.877000000
O     3.847000000    -1.325000000     3.030000000
H     4.663000000    -1.601000000     2.612000000
H     3.629000000    -2.041000000     3.627000000
O    -4.797000000     1.148000000     1.212000000
H    -5.704000000     1.449000000     1.156000000
H    -4.737000000     0.447000000     0.563000000
O    -3.189000000     1.674000000     3.348000000
H    -2.755000000     2.427000000     2.947000000
H    -3.793000000     1.360000000     2.674000000
O     7.593000000     0.571000000    -3.744000000
H     6.885000000     1.215000000    -3.771000000
H     7.391000000    -0.036000000    -4.456000000
O    -4.534000000     4.042000000     4.543000000
H    -4.995000000     3.265000000     4.225000000
H    -4.633000000     4.006000000     5.495000000
O     0.430000000    -2.863000000     0.287000000
H    -0.191000000    -2.237000000    -0.085000000
H     0.646000000    -2.505000000     1.148000000
O     2.886000000    -0.496000000    -5.774000000
H     2.367000000     0.070000000    -6.345000000
H     2.328000000    -0.642000000    -5.011000000
O     4.745000000    -2.475000000    -5.645000000
H     4.115000000    -1.756000000    -5.703000000
H     4.527000000    -3.045000000    -6.383000000
O    -4.988000000    -4.124000000     0.029000000
H    -5.268000000    -3.252000000    -0.248000000
H    -4.055000000    -4.028000000     0.216000000
O     3.659000000     2.731000000     1.040000000
H     3.428000000     3.546000000     0.594000000
H     3.511000000     2.915000000     1.967000000
O     3.358000000    -4.376000000    -0.386000000
H     4.078000000    -4.058000000     0.159000000
H     2.931000000    -3.581000000    -0.706000000
O    -5.879000000    -1.801000000    -0.386000000
H    -5.827000000    -1.166000000    -1.100000000
H    -6.633000000    -1.518000000     0.132000000
O    -4.087000000     1.160000000     5.731000000
H    -4.342000000     0.238000000     5.689000000
H    -3.724000000     1.348000000     4.866000000
O    -0.227000000    -3.552000000     4.263000000
H    -0.824000000    -3.514000000     3.516000000
H     0.642000000    -3.631000000     3.871000000
O    -5.275000000    -0.013000000    -2.492000000
H    -5.487000000     0.707000000    -3.086000000
H    -4.579000000    -0.495000000    -2.939000000
O     0.812000000     0.090000000     7.865000000
H     0.211000000     0.204000000     8.601000000
H     0.276000000    -0.304000000     7.177000000
O    -1.809000000     3.864000000     1.833000000
H    -1.106000000     4.123000000     2.429000000
H    -2.208000000     4.691000000     1.560000000
O    -0.232000000    -5.674000000    -3.342000000
H    -1.166000000    -5.749000000    -3.142000000
H    -0.045000000    -4.739000000    -3.260000000
O    -1.069000000     1.956000000     5.754000000
H    -0.862000000     1.054000000     5.997000000
H    -1.483000000     1.882000000     4.893000000
O    -3.001000000    -5.162000000    -2.985000000
H    -3.167000000    -5.936000000    -3.523000000
H    -3.296000000    -4.428000000    -3.523000000
O    -0.341000000    -3.187000000    -6.122000000
H     0.083000000    -2.991000000    -5.286000000
H    -1.275000000    -3.220000000    -5.915000000
O     0.742000000    -3.036000000    -3.055000000
H     1.107000000    -3.229000000    -2.191000000
H     0.697000000    -2.081000000    -3.088000000
O    -0.479000000    -1.469000000     6.034000000
H    -1.384000000    -1.697000000     6.248000000
H    -0.272000000    -2.006000000     5.269000000
O    -1.996000000    -3.805000000     2.476000000
H    -2.395000000    -3.017000000     2.107000000
H    -2.049000000    -4.453000000     1.773000000
O     1.918000000     2.238000000     6.235000000
H     2.682000000     1.798000000     5.862000000
H     1.608000000     1.643000000     6.917000000
O     4.793000000     0.688000000    -4.353000000
H     4.227000000     0.104000000    -4.858000000
H     4.450000000     0.641000000    -3.460000000
O    -2.866000000    -5.466000000     4.380000000
H    -2.557000000    -4.896000000     3.676000000
H    -2.121000000    -5.534000000     4.977000000
O     2.313000000     5.185000000    -0.804000000
H     2.288000000     4.440000000    -1.403000000
H     2.808000000     5.855000000    -1.276000000
O    -4.243000000    -1.617000000     5.864000000
H    -4.577000000    -2.324000000     5.313000000
H    -4.725000000    -1.706000000     6.686000000
O    -7.063000000     0.005000000     4.504000000
H    -7.788000000    -0.529000000     4.178000000
H    -6.277000000    -0.437000000     4.183000000
O     2.889000000     3.973000000     3.455000000
H     3.342000000     4.786000000     3.229000000
H     3.432000000     3.578000000     4.137000000
O    -0.004000000     4.431000000    -3.026000000
H    -0.258000000     3.950000000    -2.239000000
H     0.905000000     4.173000000    -3.181000000
O     4.748000000     1.101000000    -0.774000000
H     4.081000000     0.995000000    -1.453000000
H     4.361000000     1.718000000    -0.153000000
O     3.860000000     1.163000000     4.314000000
H     4.561000000     1.780000000     4.103000000
H     3.832000000     0.567000000     3.565000000
O     7.368000000     0.754000000    -0.873000000
H     7.536000000     0.859000000    -1.810000000
H     6.421000000     0.857000000    -0.787000000
O    -0.647000000    -0.224000000    -4.863000000
H     0.151000000    -0.336000000    -4.345000000
H    -0.333000000     0.002000000    -5.738000000
O     2.586000000     3.316000000    -2.991000000
H     3.088000000     3.309000000    -3.806000000
H     2.672000000     2.426000000    -2.649000000
O    -3.456000000     2.875000000    -1.081000000
H    -2.537000000     2.625000000    -0.983000000
H    -3.753000000     3.052000000    -0.189000000
O    -3.606000000    -1.726000000     1.791000000
H    -3.501000000    -0.779000000     1.882000000
H    -4.554000000    -1.864000000     1.804000000
O     0.344000000     4.323000000     3.655000000
H     0.266000000     3.773000000     4.435000000
H     1.268000000     4.267000000     3.414000000
O    -2.894000000    -1.432000000    -3.747000000
H    -2.069000000    -0.960000000    -3.861000000
H    -2.897000000    -2.082000000    -4.450000000
O     4.546000000     2.914000000    -6.001000000
H     4.835000000     2.645000000    -6.873000000
H     4.668000000     2.136000000    -5.458000000
O    -0.548000000     3.055000000    -0.578000000
H    -0.285000000     2.284000000    -0.075000000
H    -0.735000000     3.721000000     0.084000000
O     5.167000000    -2.386000000    -2.801000000
H     5.016000000    -3.329000000    -2.857000000
H     4.750000000    -2.030000000    -3.586000000
O    -2.193000000    -4.709000000    -0.291000000
H    -2.276000000    -4.486000000    -1.218000000
H    -1.399000000    -5.242000000    -0.243000000
