158
-3018.13721
C    -1.272000000     0.348000000    -0.685000000
H    -2.283000000     0.459000000    -1.068000000
C    -1.044000000     0.506000000     0.679000000
H    -1.837000000     0.997000000     1.237000000
C     0.181000000     0.105000000     1.200000000
H     0.276000000     0.182000000     2.297000000
C     1.209000000    -0.404000000     0.363000000
H     2.185000000    -0.636000000     0.781000000
C     0.994000000    -0.479000000    -0.996000000
H     1.767000000    -0.874000000    -1.651000000
C    -0.230000000     0.007000000    -1.521000000
C    -0.384000000    -0.093000000    -3.004000000
O     0.543000000    -0.114000000    -3.832000000
O    -1.513000000    -0.037000000    -3.503000000
O    -1.907000000    -0.382000000     5.415000000
H    -2.299000000    -0.170000000     6.262000000
H    -2.275000000     0.264000000     4.812000000
O    -6.176000000    -0.798000000    -2.897000000
H    -6.815000000    -1.500000000    -3.023000000
H    -6.263000000    -0.558000000    -1.975000000
O    -3.747000000    -1.595000000    -7.987000000
H    -3.277000000    -0.943000000    -7.467000000
H    -3.205000000    -1.717000000    -8.766000000
O    -2.058000000     4.070000000     5.868000000
H    -1.593000000     3.367000000     6.323000000
H    -1.414000000     4.426000000     5.256000000
O    -0.243000000     2.095000000     7.703000000
H     0.257000000     1.284000000     7.791000000
H    -0.173000000     2.513000000     8.562000000
O     1.293000000    -4.898000000     0.825000000
H     1.975000000    -4.469000000     1.342000000
H     0.549000000    -4.296000000     0.863000000
O    -2.676000000    -5.077000000     3.185000000
H    -2.347000000    -4.509000000     3.881000000
H    -2.546000000    -4.572000000     2.382000000
O     2.992000000     1.547000000    -3.716000000
H     2.421000000     0.970000000    -3.209000000
H     2.772000000     1.361000000    -4.629000000
O    -1.643000000     5.610000000     1.916000000
H    -2.239000000     4.930000000     1.602000000
H    -1.269000000     5.249000000     2.720000000
O    -2.395000000    -2.590000000    -3.774000000
H    -2.695000000    -2.755000000    -4.668000000
H    -2.014000000    -1.713000000    -3.808000000
O    -3.026000000     1.327000000     3.554000000
H    -3.373000000     0.637000000     2.989000000
H    -3.388000000     2.136000000     3.194000000
O    -4.361000000    -2.969000000    -1.402000000
H    -4.959000000    -2.225000000    -1.342000000
H    -3.765000000    -2.741000000    -2.116000000
O     2.326000000     4.250000000    -4.055000000
H     1.620000000     4.467000000    -3.446000000
H     2.459000000     3.309000000    -3.940000000
O    -3.363000000    -3.119000000     1.068000000
H    -4.082000000    -2.712000000     1.552000000
H    -3.650000000    -3.102000000     0.155000000
O    -3.918000000     3.474000000     1.140000000
H    -4.352000000     4.133000000     1.682000000
H    -4.625000000     3.080000000     0.630000000
O    -4.986000000    -1.841000000     3.509000000
H    -5.813000000    -1.530000000     3.140000000
H    -4.662000000    -1.104000000     4.026000000
O     0.253000000     4.193000000    -2.106000000
H     0.546000000     3.426000000    -1.614000000
H    -0.630000000     4.365000000    -1.777000000
O    -0.403000000    -2.756000000     1.497000000
H    -1.353000000    -2.815000000     1.398000000
H    -0.176000000    -1.901000000     1.133000000
O    -1.592000000    -3.481000000     5.107000000
H    -0.760000000    -3.440000000     4.636000000
H    -1.731000000    -2.590000000     5.427000000
O    -0.337000000     1.932000000    -5.802000000
H    -1.005000000     2.490000000    -5.403000000
H    -0.288000000     1.169000000    -5.227000000
O     4.246000000    -0.736000000    -6.122000000
H     3.756000000    -1.240000000    -5.472000000
H     3.646000000    -0.038000000    -6.386000000
O    -6.037000000    -0.311000000    -0.318000000
H    -6.235000000    -1.113000000     0.166000000
H    -6.290000000     0.395000000     0.277000000
O     5.838000000     2.507000000     0.430000000
H     5.987000000     3.244000000     1.023000000
H     5.653000000     1.768000000     1.010000000
O     1.437000000    -4.382000000    -1.770000000
H     1.425000000    -4.508000000    -0.821000000
H     2.340000000    -4.134000000    -1.966000000
O    -1.890000000    -0.207000000    -6.301000000
H    -1.728000000    -0.074000000    -5.367000000
H    -1.019000000    -0.328000000    -6.680000000
O     3.360000000    -1.414000000     4.825000000
H     3.606000000    -0.543000000     4.514000000
H     2.404000000    -1.389000000     4.873000000
O     4.117000000    -3.424000000    -2.028000000
H     4.164000000    -2.669000000    -1.442000000
H     4.748000000    -3.230000000    -2.721000000
O    -0.403000000    -4.579000000    -4.030000000
H     0.298000000    -4.542000000    -3.380000000
H    -1.111000000    -4.060000000    -3.650000000
O     3.524000000     1.120000000     3.923000000
H     4.414000000     1.087000000     3.572000000
H     3.141000000     1.906000000     3.533000000
O    -5.400000000     3.141000000    -1.286000000
H    -5.871000000     3.514000000    -2.031000000
H    -4.648000000     2.697000000    -1.676000000
O    -2.270000000     4.257000000    -0.866000000
H    -2.796000000     4.874000000    -1.376000000
H    -2.864000000     3.942000000    -0.185000000
O     6.034000000    -2.582000000     0.860000000
H     6.125000000    -2.085000000     0.047000000
H     6.893000000    -2.984000000     0.993000000
O     5.862000000    -0.068000000     2.186000000
H     5.741000000    -1.016000000     2.148000000
H     6.499000000     0.065000000     2.888000000
O     2.680000000    -2.203000000    -4.457000000
H     2.273000000    -1.378000000    -4.192000000
H     2.663000000    -2.743000000    -3.667000000
O     1.763000000     2.524000000    -0.165000000
H     1.947000000     2.983000000     0.654000000
H     1.324000000     1.718000000     0.106000000
O     3.289000000    -4.140000000     5.147000000
H     4.193000000    -4.431000000     5.267000000
H     3.362000000    -3.208000000     4.946000000
O     0.739000000    -1.160000000     5.382000000
H     0.800000000    -1.047000000     6.330000000
H    -0.142000000    -0.857000000     5.160000000
O     4.397000000    -0.964000000    -1.009000000
H     4.771000000    -0.338000000    -1.630000000
H     4.459000000    -0.525000000    -0.161000000
O     1.375000000     3.640000000     6.281000000
H     0.777000000     3.240000000     6.912000000
H     2.235000000     3.586000000     6.699000000
O     0.582000000    -1.458000000    -6.666000000
H     1.038000000    -0.715000000    -7.063000000
H     0.797000000    -1.400000000    -5.735000000
O     3.496000000    -3.273000000     1.881000000
H     3.413000000    -3.001000000     2.795000000
H     4.421000000    -3.139000000     1.673000000
O     5.356000000     1.446000000    -2.138000000
H     5.602000000     1.893000000    -1.328000000
H     4.509000000     1.823000000    -2.373000000
O     2.285000000     1.130000000    -6.324000000
H     1.456000000     1.525000000    -6.054000000
H     2.414000000     1.433000000    -7.223000000
O     0.767000000    -3.505000000     3.813000000
H     0.996000000    -2.777000000     4.390000000
H     0.666000000    -3.104000000     2.950000000
O    -0.089000000     4.550000000     4.051000000
H     0.426000000     3.821000000     4.396000000
H     0.173000000     5.302000000     4.581000000
O     2.838000000     3.353000000     2.275000000
H     2.484000000     4.013000000     2.871000000
H     3.779000000     3.529000000     2.253000000
O    -3.778000000     1.478000000    -3.055000000
H    -2.958000000     0.990000000    -2.985000000
H    -4.442000000     0.808000000    -3.219000000
O    -2.002000000     3.709000000    -4.317000000
H    -1.597000000     3.836000000    -3.459000000
H    -2.892000000     3.417000000    -4.121000000
