158
-3024.92388
C    -1.234000000    -0.294000000    -0.784000000
H    -2.198000000    -0.388000000    -1.277000000
C    -1.194000000     0.009000000     0.570000000
H    -2.075000000     0.118000000     1.197000000
C    -0.039000000     0.192000000     1.239000000
H     0.032000000     0.353000000     2.351000000
C     1.192000000     0.159000000     0.454000000
H     2.130000000     0.326000000     0.978000000
C     1.185000000    -0.077000000    -0.931000000
H     2.100000000    -0.032000000    -1.517000000
C    -0.037000000    -0.343000000    -1.546000000
C    -0.070000000    -0.616000000    -3.027000000
O     0.913000000    -0.320000000    -3.674000000
O    -1.026000000    -1.114000000    -3.561000000
O    -1.209000000     0.901000000     7.614000000
H    -0.618000000     1.623000000     7.830000000
H    -2.086000000     1.278000000     7.692000000
O    -6.919000000     1.131000000    -2.044000000
H    -7.540000000     0.402000000    -2.071000000
H    -6.137000000     0.764000000    -1.632000000
O    -3.778000000    -3.608000000    -5.239000000
H    -2.830000000    -3.474000000    -5.218000000
H    -4.143000000    -2.778000000    -4.931000000
O     3.734000000    -0.711000000     7.458000000
H     3.028000000    -0.865000000     6.831000000
H     3.569000000    -1.336000000     8.164000000
O     5.479000000     1.232000000    -2.309000000
H     6.286000000     0.804000000    -2.024000000
H     5.755000000     1.822000000    -3.010000000
O    -0.248000000     3.817000000     5.151000000
H    -0.185000000     3.204000000     5.883000000
H     0.547000000     4.347000000     5.212000000
O     3.684000000    -3.507000000     1.787000000
H     3.881000000    -3.116000000     2.639000000
H     2.729000000    -3.493000000     1.732000000
O     4.106000000     2.715000000    -0.545000000
H     4.099000000     3.508000000    -1.081000000
H     4.652000000     2.100000000    -1.034000000
O    -0.413000000     2.865000000     2.624000000
H     0.194000000     2.134000000     2.745000000
H    -0.312000000     3.394000000     3.415000000
O    -3.627000000    -1.037000000    -2.804000000
H    -3.811000000    -1.799000000    -2.255000000
H    -2.692000000    -1.103000000    -3.000000000
O    -2.519000000    -4.588000000    -2.512000000
H    -3.307000000    -4.053000000    -2.601000000
H    -2.418000000    -4.710000000    -1.568000000
O    -1.869000000    -0.129000000     5.013000000
H    -1.645000000     0.234000000     5.870000000
H    -2.286000000     0.596000000     4.547000000
O    -3.290000000    -3.432000000     2.393000000
H    -3.467000000    -2.989000000     3.222000000
H    -4.034000000    -3.204000000     1.835000000
O    -0.828000000    -2.192000000     3.524000000
H    -1.123000000    -1.327000000     3.810000000
H    -1.633000000    -2.652000000     3.285000000
O    -2.790000000     1.671000000     3.378000000
H    -2.265000000     2.438000000     3.149000000
H    -3.500000000     1.668000000     2.736000000
O    -1.786000000    -0.832000000    -7.814000000
H    -1.165000000    -0.114000000    -7.691000000
H    -1.454000000    -1.308000000    -8.575000000
O    -3.899000000    -2.145000000     4.616000000
H    -4.555000000    -1.449000000     4.662000000
H    -3.076000000    -1.715000000     4.847000000
O     0.948000000    -2.961000000     0.795000000
H     0.778000000    -2.048000000     1.024000000
H     1.176000000    -2.937000000    -0.134000000
O     1.790000000     2.157000000    -5.129000000
H     0.959000000     2.623000000    -5.030000000
H     1.602000000     1.266000000    -4.835000000
O    -5.093000000     0.017000000    -0.094000000
H    -4.287000000    -0.434000000    -0.344000000
H    -5.568000000    -0.620000000     0.440000000
O     7.364000000    -0.076000000     0.155000000
H     6.422000000    -0.235000000     0.221000000
H     7.727000000    -0.461000000     0.952000000
O    -5.221000000    -3.182000000    -2.142000000
H    -5.986000000    -2.672000000    -2.411000000
H    -5.587000000    -3.980000000    -1.762000000
O    -4.531000000     1.016000000    -4.606000000
H    -5.266000000     1.479000000    -4.204000000
H    -4.145000000     0.512000000    -3.889000000
O     4.995000000     1.435000000     3.284000000
H     5.122000000     2.040000000     4.014000000
H     5.874000000     1.296000000     2.932000000
O     1.883000000    -3.004000000    -1.772000000
H     2.798000000    -3.199000000    -1.972000000
H     1.676000000    -2.243000000    -2.314000000
O    -1.315000000    -2.596000000    -5.737000000
H    -0.946000000    -2.051000000    -5.041000000
H    -1.479000000    -1.986000000    -6.456000000
O    -2.706000000     4.957000000     4.613000000
H    -3.288000000     4.440000000     4.056000000
H    -1.835000000     4.594000000     4.453000000
O     2.079000000    -0.520000000     5.111000000
H     2.253000000     0.131000000     4.431000000
H     1.130000000    -0.645000000     5.086000000
O    -0.737000000    -5.621000000    -4.380000000
H    -0.788000000    -4.992000000    -5.100000000
H    -1.171000000    -5.182000000    -3.648000000
O     2.052000000     1.772000000     3.589000000
H     2.881000000     1.842000000     3.115000000
H     2.132000000     2.403000000     4.305000000
O    -4.424000000     2.961000000     0.252000000
H    -5.169000000     3.338000000    -0.216000000
H    -4.289000000     2.108000000    -0.161000000
O    -0.423000000     5.667000000     1.658000000
H    -1.125000000     5.933000000     1.064000000
H    -0.706000000     4.818000000     1.999000000
O    -0.092000000     1.372000000    -7.422000000
H    -0.738000000     1.538000000    -6.735000000
H     0.405000000     0.618000000    -7.105000000
O     3.520000000    -0.511000000    -4.003000000
H     2.593000000    -0.347000000    -3.832000000
H     3.970000000     0.248000000    -3.632000000
O    -4.435000000     4.126000000     2.903000000
H    -4.925000000     4.840000000     2.496000000
H    -4.158000000     3.577000000     2.170000000
O     0.319000000     3.196000000    -0.206000000
H     1.091000000     2.671000000    -0.416000000
H     0.065000000     2.907000000     0.671000000
O     1.085000000    -0.968000000    -6.270000000
H     1.180000000    -1.915000000    -6.368000000
H     1.205000000    -0.810000000    -5.334000000
O     2.520000000     4.691000000    -3.858000000
H     2.522000000     4.699000000    -4.815000000
H     1.729000000     4.205000000    -3.624000000
O     4.035000000    -2.594000000     4.154000000
H     3.787000000    -1.717000000     4.444000000
H     4.621000000    -2.917000000     4.839000000
O     4.670000000     0.081000000     0.715000000
H     4.439000000     0.181000000     1.638000000
H     4.196000000     0.786000000     0.272000000
O     3.960000000    -2.855000000    -5.392000000
H     3.816000000    -1.931000000    -5.191000000
H     4.146000000    -3.259000000    -4.544000000
O     3.761000000     1.474000000    -6.729000000
H     3.107000000     1.622000000    -6.046000000
H     3.292000000     0.994000000    -7.411000000
O     1.192000000    -3.735000000     4.625000000
H     0.453000000    -3.312000000     4.188000000
H     1.944000000    -3.181000000     4.414000000
O     2.035000000     5.082000000     4.388000000
H     2.514000000     5.285000000     3.585000000
H     2.552000000     5.487000000     5.084000000
O    -5.438000000     0.039000000     4.948000000
H    -4.958000000     0.811000000     5.248000000
H    -5.795000000     0.294000000     4.098000000
O    -1.783000000     1.184000000    -5.187000000
H    -1.515000000     0.374000000    -4.753000000
H    -2.707000000     1.283000000    -4.960000000
O    -1.687000000     3.998000000    -2.275000000
H    -2.498000000     3.670000000    -1.887000000
H    -1.091000000     4.099000000    -1.533000000
O    -0.588000000     3.545000000    -4.670000000
H    -0.823000000     3.943000000    -3.832000000
H    -1.135000000     2.761000000    -4.724000000
