158
-3012.03060
C    -1.027000000    -0.728000000    -0.799000000
H    -1.809000000    -1.222000000    -1.370000000
C    -1.039000000    -0.629000000     0.626000000
H    -1.747000000    -1.187000000     1.232000000
C     0.006000000     0.113000000     1.250000000
H     0.066000000     0.211000000     2.344000000
C     1.052000000     0.599000000     0.493000000
H     1.934000000     0.986000000     0.996000000
C     1.072000000     0.430000000    -0.837000000
H     1.820000000     0.863000000    -1.497000000
C    -0.008000000    -0.123000000    -1.533000000
C    -0.045000000    -0.072000000    -3.074000000
O    -0.865000000    -0.729000000    -3.665000000
O     0.847000000     0.366000000    -3.717000000
O     3.785000000     0.925000000     3.119000000
H     4.340000000     0.459000000     2.493000000
H     4.360000000     1.588000000     3.502000000
O     3.217000000    -0.888000000    -4.622000000
H     2.504000000    -0.347000000    -4.283000000
H     2.778000000    -1.591000000    -5.101000000
O    -3.387000000     2.158000000     1.607000000
H    -2.948000000     1.444000000     2.071000000
H    -2.768000000     2.416000000     0.924000000
O     1.107000000    -3.333000000    -1.076000000
H     1.857000000    -3.812000000    -1.430000000
H     1.471000000    -2.495000000    -0.793000000
O     2.651000000    -2.742000000     5.826000000
H     2.361000000    -2.565000000     6.720000000
H     2.420000000    -1.952000000     5.338000000
O     0.843000000    -2.971000000     3.264000000
H     0.937000000    -2.063000000     3.554000000
H     0.115000000    -3.313000000     3.783000000
O     0.417000000     4.855000000    -4.425000000
H     0.878000000     5.367000000    -3.761000000
H    -0.290000000     5.428000000    -4.722000000
O    -2.179000000    -2.891000000    -3.788000000
H    -2.025000000    -3.454000000    -3.029000000
H    -1.618000000    -2.130000000    -3.639000000
O    -3.389000000     0.214000000    -3.162000000
H    -2.483000000    -0.060000000    -3.021000000
H    -3.836000000    -0.580000000    -3.457000000
O     3.538000000     2.098000000    -6.717000000
H     4.316000000     1.847000000    -6.221000000
H     2.892000000     2.330000000    -6.049000000
O    -0.934000000    -4.190000000     5.009000000
H    -1.842000000    -4.015000000     4.765000000
H    -0.983000000    -4.488000000     5.917000000
O     2.191000000     3.759000000     2.578000000
H     1.309000000     3.487000000     2.832000000
H     2.755000000     3.430000000     3.278000000
O    -4.905000000    -1.985000000    -3.937000000
H    -4.206000000    -2.636000000    -3.869000000
H    -4.824000000    -1.639000000    -4.826000000
O     3.462000000    -3.833000000     0.919000000
H     4.305000000    -4.062000000     1.310000000
H     2.890000000    -3.662000000     1.667000000
O    -4.529000000     4.372000000     2.515000000
H    -4.285000000     3.513000000     2.171000000
H    -4.123000000     4.995000000     1.912000000
O     0.590000000    -2.578000000    -5.503000000
H     0.517000000    -1.721000000    -5.084000000
H    -0.102000000    -2.581000000    -6.164000000
O    -1.108000000    -4.385000000    -1.820000000
H    -0.317000000    -3.846000000    -1.815000000
H    -0.784000000    -5.286000000    -1.830000000
O     1.107000000     1.412000000     6.871000000
H     1.441000000     0.884000000     7.595000000
H     0.209000000     1.626000000     7.124000000
O     1.320000000     0.324000000    -7.302000000
H     2.192000000     0.689000000    -7.151000000
H     0.846000000     0.492000000    -6.487000000
O     4.661000000     0.219000000    -2.790000000
H     5.001000000     0.907000000    -3.362000000
H     4.016000000    -0.242000000    -3.328000000
O     5.777000000     0.321000000     1.225000000
H     6.083000000    -0.149000000     0.450000000
H     5.499000000     1.175000000     0.893000000
O    -1.413000000     2.120000000     3.616000000
H    -0.487000000     2.323000000     3.748000000
H    -1.824000000     2.970000000     3.462000000
O     6.121000000     4.205000000     0.174000000
H     6.565000000     4.354000000    -0.661000000
H     5.578000000     3.432000000     0.023000000
O    -3.416000000     1.563000000    -7.532000000
H    -3.957000000     1.167000000    -8.215000000
H    -2.986000000     0.820000000    -7.107000000
O     1.698000000    -0.154000000     4.673000000
H     2.360000000     0.227000000     4.096000000
H     1.626000000     0.467000000     5.398000000
O    -1.670000000     1.654000000     7.522000000
H    -1.727000000     2.188000000     6.729000000
H    -2.518000000     1.773000000     7.951000000
O    -3.285000000     2.829000000    -2.560000000
H    -3.436000000     1.958000000    -2.928000000
H    -2.499000000     2.729000000    -2.022000000
O    -0.447000000     5.479000000     1.569000000
H    -1.399000000     5.394000000     1.510000000
H    -0.228000000     5.121000000     2.430000000
O    -0.710000000    -2.261000000    -7.854000000
H    -0.660000000    -3.144000000    -8.220000000
H    -0.151000000    -1.733000000    -8.424000000
O    -2.961000000    -5.448000000     2.553000000
H    -3.027000000    -4.598000000     2.989000000
H    -2.193000000    -5.368000000     1.988000000
O    -3.767000000    -4.428000000    -1.185000000
H    -2.814000000    -4.338000000    -1.178000000
H    -3.925000000    -5.327000000    -0.896000000
O    -2.618000000    -5.304000000    -5.339000000
H    -2.067000000    -4.639000000    -4.926000000
H    -2.927000000    -5.844000000    -4.612000000
O    -0.510000000    -4.492000000     1.326000000
H    -0.087000000    -3.880000000     1.928000000
H    -0.510000000    -4.038000000     0.484000000
O    -1.517000000    -0.445000000     4.429000000
H    -0.571000000    -0.410000000     4.571000000
H    -1.744000000     0.431000000     4.116000000
O    -3.016000000    -2.189000000     6.405000000
H    -3.494000000    -1.361000000     6.444000000
H    -2.314000000    -2.031000000     5.774000000
O    -0.174000000     4.583000000     4.085000000
H    -0.550000000     4.410000000     4.948000000
H     0.088000000     5.503000000     4.118000000
O     2.875000000     4.842000000    -0.151000000
H     2.578000000     4.298000000     0.578000000
H     2.900000000     5.730000000     0.207000000
O    -1.919000000     2.772000000    -5.476000000
H    -2.426000000     2.335000000    -6.160000000
H    -1.443000000     2.065000000    -5.041000000
O    -5.171000000    -0.469000000     1.539000000
H    -4.883000000     0.346000000     1.129000000
H    -5.935000000    -0.218000000     2.059000000
O     1.788000000     2.723000000    -4.868000000
H     1.060000000     3.342000000    -4.920000000
H     1.380000000     1.894000000    -4.617000000
O    -1.612000000    -0.216000000    -6.175000000
H    -1.270000000    -0.478000000    -5.321000000
H    -1.342000000    -0.918000000    -6.767000000
O     2.310000000    -4.603000000    -5.636000000
H     1.754000000    -3.856000000    -5.415000000
H     2.771000000    -4.332000000    -6.430000000
O    -1.557000000     2.660000000    -0.149000000
H    -1.205000000     3.422000000    -0.608000000
H    -0.787000000     2.137000000     0.074000000
O    -5.489000000    -2.220000000    -0.906000000
H    -5.235000000    -1.764000000    -0.103000000
H    -5.059000000    -3.073000000    -0.843000000
O    -3.389000000    -2.708000000     3.086000000
H    -3.160000000    -1.779000000     3.065000000
H    -4.318000000    -2.730000000     2.856000000
O     3.446000000     3.123000000     5.712000000
H     3.907000000     3.595000000     6.405000000
H     2.778000000     2.615000000     6.171000000
O     4.890000000     2.022000000    -0.646000000
H     4.028000000     2.399000000    -0.824000000
H     5.030000000     1.398000000    -1.358000000
O    -6.446000000     1.684000000    -2.439000000
H    -6.957000000     0.890000000    -2.280000000
H    -5.559000000     1.457000000    -2.160000000
