158
-3050.93202
C    -0.063000000     0.884000000    -1.232000000
H    -0.043000000     1.459000000    -2.154000000
C     0.730000000    -0.227000000    -1.115000000
H     1.414000000    -0.516000000    -1.909000000
C     0.717000000    -0.888000000     0.081000000
H     1.484000000    -1.807000000     0.117000000
C    -0.066000000    -0.557000000     1.225000000
H     0.092000000    -1.073000000     2.169000000
C    -0.976000000     0.453000000     1.039000000
H    -1.599000000     0.754000000     1.877000000
C    -0.965000000     1.240000000    -0.143000000
C    -2.145000000     2.158000000    -0.320000000
O    -2.587000000     2.335000000    -1.454000000
O    -2.594000000     2.740000000     0.653000000
O    -1.387000000     3.210000000     2.871000000
H    -1.879000000     2.868000000     2.125000000
H    -1.357000000     4.155000000     2.725000000
O     2.216000000     3.069000000     3.175000000
H     2.530000000     2.536000000     2.444000000
H     2.733000000     2.776000000     3.925000000
O    -4.773000000     0.978000000    -2.339000000
H    -4.206000000     1.705000000    -2.085000000
H    -5.150000000     0.668000000    -1.515000000
O    -0.268000000     1.290000000     6.465000000
H     0.496000000     1.025000000     6.978000000
H     0.050000000     1.323000000     5.563000000
O     1.855000000     0.195000000    -4.627000000
H     2.634000000    -0.357000000    -4.698000000
H     1.317000000    -0.051000000    -5.380000000
O    -5.147000000     0.994000000     0.892000000
H    -4.760000000     0.121000000     0.957000000
H    -4.397000000     1.585000000     0.826000000
O     2.478000000    -4.916000000    -0.069000000
H     2.410000000    -5.864000000     0.046000000
H     2.608000000    -4.576000000     0.816000000
O    -5.131000000    -0.313000000    -4.593000000
H    -4.936000000     0.249000000    -3.843000000
H    -5.362000000     0.296000000    -5.294000000
O     1.977000000    -3.883000000     2.649000000
H     2.384000000    -3.181000000     3.156000000
H     1.074000000    -3.592000000     2.519000000
O    -6.747000000     4.147000000     1.813000000
H    -7.350000000     3.456000000     2.087000000
H    -6.051000000     3.685000000     1.346000000
O    -3.538000000    -1.694000000    -2.803000000
H    -4.230000000    -1.297000000    -3.332000000
H    -2.751000000    -1.195000000    -3.024000000
O     0.507000000     6.025000000    -2.814000000
H     0.729000000     5.332000000    -3.436000000
H     0.020000000     5.578000000    -2.122000000
O    -1.324000000     6.030000000     2.100000000
H    -0.418000000     6.268000000     2.295000000
H    -1.818000000     6.840000000     2.227000000
O    -2.446000000     2.063000000    -4.241000000
H    -2.471000000     2.026000000    -3.285000000
H    -3.272000000     2.479000000    -4.487000000
O    -4.134000000     6.978000000    -0.847000000
H    -3.373000000     7.521000000    -0.643000000
H    -4.240000000     6.416000000    -0.079000000
O    -4.078000000     5.089000000     1.278000000
H    -3.800000000     5.593000000     2.042000000
H    -3.652000000     4.238000000     1.384000000
O     2.150000000     2.893000000    -4.376000000
H     2.188000000     1.939000000    -4.303000000
H     1.221000000     3.086000000    -4.503000000
O    -0.807000000    -3.560000000     3.281000000
H    -1.503000000    -3.065000000     2.849000000
H    -1.132000000    -3.707000000     4.169000000
O     1.184000000    -4.477000000    -2.484000000
H     1.684000000    -4.412000000    -1.670000000
H     1.200000000    -5.409000000    -2.702000000
O     3.176000000    -6.228000000     3.062000000
H     2.731000000    -5.384000000     2.974000000
H     3.754000000    -6.116000000     3.816000000
O    -3.530000000     2.629000000     4.446000000
H    -2.731000000     2.565000000     3.923000000
H    -3.219000000     2.711000000     5.348000000
O     2.202000000    -0.977000000     4.872000000
H     1.500000000    -0.755000000     5.483000000
H     2.083000000    -0.371000000     4.140000000
O     1.119000000    -2.947000000    -4.890000000
H     1.272000000    -3.609000000    -4.216000000
H     0.184000000    -3.014000000    -5.083000000
O    -2.248000000    -0.430000000     5.661000000
H    -1.529000000     0.106000000     5.996000000
H    -2.356000000    -1.122000000     6.314000000
O     7.310000000    -0.457000000     0.277000000
H     6.700000000    -0.759000000    -0.397000000
H     6.801000000     0.164000000     0.798000000
O    -1.774000000    -4.189000000    -1.995000000
H    -0.867000000    -4.083000000    -2.285000000
H    -2.126000000    -3.299000000    -1.980000000
O    -5.471000000    -2.792000000     1.908000000
H    -4.806000000    -2.104000000     1.886000000
H    -5.614000000    -2.958000000     2.840000000
O     4.763000000    -2.808000000     0.248000000
H     4.642000000    -3.521000000    -0.379000000
H     5.114000000    -2.087000000    -0.275000000
O    -0.669000000    -6.072000000     2.401000000
H    -0.993000000    -6.159000000     1.504000000
H    -0.804000000    -5.149000000     2.615000000
O    -0.488000000     3.872000000    -4.592000000
H    -1.006000000     4.519000000    -5.072000000
H    -1.111000000     3.176000000    -4.381000000
O     2.366000000     1.588000000     0.729000000
H     1.656000000     1.030000000     0.411000000
H     2.345000000     2.353000000     0.153000000
O    -3.042000000    -1.896000000     3.248000000
H    -2.578000000    -1.305000000     3.840000000
H    -3.591000000    -2.429000000     3.823000000
O     5.354000000    -0.961000000    -1.806000000
H     5.087000000    -1.232000000    -2.684000000
H     5.431000000    -0.008000000    -1.862000000
O     1.700000000     3.658000000    -1.134000000
H     0.947000000     4.071000000    -0.710000000
H     2.015000000     4.315000000    -1.754000000
O    -6.429000000     4.983000000    -3.324000000
H    -6.888000000     5.584000000    -2.738000000
H    -5.641000000     4.733000000    -2.841000000
O    -1.091000000    -1.337000000    -4.014000000
H    -1.434000000    -0.667000000    -4.606000000
H    -0.173000000    -1.096000000    -3.887000000
O    -4.813000000     3.794000000    -1.320000000
H    -4.931000000     4.220000000    -0.472000000
H    -3.884000000     3.563000000    -1.345000000
O     4.570000000    -3.462000000    -4.001000000
H     4.741000000    -3.842000000    -3.139000000
H     3.862000000    -3.996000000    -4.361000000
O     5.956000000    -0.123000000     4.140000000
H     5.645000000    -0.019000000     3.241000000
H     5.967000000    -1.070000000     4.281000000
O     0.367000000     1.216000000     3.841000000
H    -0.276000000     1.818000000     3.465000000
H     1.201000000     1.680000000     3.768000000
O    -0.216000000     1.843000000    -7.136000000
H    -0.636000000     1.032000000    -7.422000000
H    -0.611000000     2.028000000    -6.283000000
O    -3.708000000    -1.328000000     0.013000000
H    -3.576000000    -1.378000000    -0.934000000
H    -2.930000000    -1.742000000     0.385000000
O     5.997000000    -2.815000000     2.677000000
H     6.223000000    -3.739000000     2.781000000
H     5.589000000    -2.763000000     1.812000000
O     5.095000000     1.175000000     1.231000000
H     4.159000000     1.037000000     1.081000000
H     5.160000000     2.088000000     1.510000000
O    -0.557000000     5.020000000    -0.532000000
H    -0.941000000     5.766000000    -0.071000000
H    -1.213000000     4.328000000    -0.456000000
O     5.042000000    -4.894000000    -1.414000000
H     5.666000000    -5.547000000    -1.098000000
H     4.203000000    -5.162000000    -1.037000000
O     4.682000000    -0.887000000    -4.663000000
H     4.666000000    -1.817000000    -4.434000000
H     4.730000000    -0.877000000    -5.619000000
O     5.491000000     1.862000000    -1.783000000
H     5.978000000     2.277000000    -1.071000000
H     4.593000000     2.175000000    -1.673000000
