158
-3054.11659
C    -0.438000000    -0.673000000    -1.258000000
H    -0.689000000    -1.309000000    -2.103000000
C     0.571000000    -1.132000000    -0.323000000
H     1.143000000    -2.022000000    -0.573000000
C     0.901000000    -0.413000000     0.826000000
H     1.726000000    -0.678000000     1.555000000
C     0.199000000     0.806000000     0.989000000
H     0.437000000     1.427000000     1.849000000
C    -0.778000000     1.231000000     0.119000000
H    -1.318000000     2.152000000     0.325000000
C    -1.128000000     0.503000000    -1.008000000
C    -2.382000000     0.958000000    -1.913000000
O    -2.422000000     0.618000000    -3.054000000
O    -3.419000000     1.379000000    -1.364000000
O     3.772000000     2.343000000     3.786000000
H     4.669000000     2.498000000     4.082000000
H     3.399000000     3.218000000     3.683000000
O    -1.082000000    -0.865000000    -4.719000000
H    -1.556000000    -0.223000000    -4.190000000
H    -1.378000000    -1.713000000    -4.388000000
O     1.688000000    -0.692000000    -4.011000000
H     0.771000000    -0.797000000    -4.264000000
H     2.146000000    -1.391000000    -4.476000000
O    -5.971000000     1.721000000    -1.429000000
H    -6.248000000     1.740000000    -0.513000000
H    -5.020000000     1.619000000    -1.390000000
O    -5.021000000    -3.121000000    -1.610000000
H    -5.755000000    -2.626000000    -1.973000000
H    -4.467000000    -2.460000000    -1.195000000
O     3.628000000    -3.103000000     5.790000000
H     3.583000000    -2.554000000     5.007000000
H     4.297000000    -2.689000000     6.335000000
O     2.735000000    -3.880000000    -2.503000000
H     3.633000000    -4.084000000    -2.244000000
H     2.828000000    -3.345000000    -3.291000000
O    -6.551000000     0.728000000    -5.026000000
H    -6.472000000     1.668000000    -4.864000000
H    -7.433000000     0.620000000    -5.380000000
O     2.930000000    -5.461000000     3.917000000
H     2.525000000    -5.060000000     3.148000000
H     3.004000000    -4.746000000     4.549000000
O    -4.738000000    -0.971000000    -3.567000000
H    -3.920000000    -0.538000000    -3.325000000
H    -5.257000000    -0.286000000    -3.987000000
O    -4.384000000    -0.878000000     0.003000000
H    -4.213000000    -0.242000000    -0.692000000
H    -4.656000000    -0.347000000     0.751000000
O    -1.553000000    -5.042000000    -2.197000000
H    -2.245000000    -4.618000000    -2.705000000
H    -1.884000000    -5.048000000    -1.299000000
O     1.381000000     3.613000000    -3.488000000
H     0.463000000     3.353000000    -3.409000000
H     1.637000000     3.324000000    -4.364000000
O     5.547000000     3.784000000     0.193000000
H     5.532000000     4.485000000     0.845000000
H     4.632000000     3.518000000     0.106000000
O    -5.670000000     0.878000000     1.541000000
H    -5.653000000     1.832000000     1.475000000
H    -5.629000000     0.702000000     2.481000000
O    -3.412000000     1.679000000    -5.331000000
H    -2.984000000     1.307000000    -4.560000000
H    -4.272000000     1.958000000    -5.017000000
O    -3.281000000     4.903000000    -3.452000000
H    -3.943000000     5.308000000    -4.012000000
H    -3.486000000     5.220000000    -2.572000000
O     4.616000000    -1.255000000    -0.746000000
H     3.904000000    -0.699000000    -1.065000000
H     4.801000000    -0.925000000     0.133000000
O    -2.487000000     1.304000000     4.719000000
H    -1.885000000     1.776000000     5.295000000
H    -2.685000000     0.495000000     5.191000000
O     1.480000000    -0.787000000     4.701000000
H     1.041000000     0.047000000     4.867000000
H     1.103000000    -1.389000000     5.341000000
O    -7.329000000    -0.526000000    -2.536000000
H    -6.817000000    -1.213000000    -2.963000000
H    -6.674000000     0.079000000    -2.187000000
O     1.283000000     4.764000000    -0.923000000
H     1.816000000     4.249000000    -0.317000000
H     1.443000000     4.367000000    -1.779000000
O    -0.617000000     5.425000000     0.713000000
H    -1.456000000     5.406000000     0.252000000
H     0.021000000     5.138000000     0.059000000
O     5.184000000    -5.000000000     1.507000000
H     4.231000000    -4.923000000     1.463000000
H     5.479000000    -4.831000000     0.613000000
O    -1.366000000     2.815000000    -7.024000000
H    -2.055000000     3.078000000    -7.634000000
H    -1.819000000     2.290000000    -6.364000000
O     2.326000000    -4.340000000     1.544000000
H     2.622000000    -3.451000000     1.740000000
H     1.913000000    -4.271000000     0.684000000
O    -3.509000000     3.095000000     2.433000000
H    -4.295000000     3.522000000     2.772000000
H    -3.372000000     2.349000000     3.017000000
O     4.949000000    -0.013000000     2.263000000
H     5.532000000     0.511000000     1.714000000
H     4.389000000     0.629000000     2.699000000
O    -2.938000000    -2.835000000    -4.224000000
H    -3.747000000    -2.402000000    -3.952000000
H    -2.931000000    -2.753000000    -5.178000000
O     0.531000000     1.986000000     4.438000000
H     0.038000000     2.486000000     3.788000000
H     1.293000000     2.532000000     4.633000000
O     0.882000000    -4.657000000    -0.744000000
H     1.658000000    -4.387000000    -1.234000000
H     0.211000000    -4.791000000    -1.413000000
O     6.979000000     1.902000000     1.570000000
H     6.368000000     2.322000000     0.965000000
H     7.844000000     2.183000000     1.270000000
O    -1.347000000     3.086000000    -3.366000000
H    -1.777000000     2.246000000    -3.523000000
H    -2.000000000     3.741000000    -3.615000000
O    -0.521000000     3.607000000     2.528000000
H    -1.409000000     3.262000000     2.615000000
H    -0.596000000     4.298000000     1.870000000
O    -0.975000000    -2.619000000     3.029000000
H    -0.765000000    -2.709000000     3.958000000
H    -0.435000000    -1.886000000     2.731000000
O    -0.548000000    -5.508000000     3.115000000
H     0.064000000    -5.653000000     3.836000000
H    -0.675000000    -4.559000000     3.096000000
O    -2.886000000    -4.951000000     0.073000000
H    -2.678000000    -4.116000000     0.493000000
H    -3.822000000    -4.897000000    -0.117000000
O    -0.288000000    -1.208000000    -7.179000000
H    -0.864000000    -0.993000000    -7.913000000
H    -0.783000000    -0.948000000    -6.402000000
O    -3.276000000     7.040000000    -0.454000000
H    -2.561000000     7.256000000    -1.053000000
H    -3.369000000     6.090000000    -0.526000000
O    -0.149000000    -6.827000000     0.778000000
H    -0.118000000    -6.895000000     1.732000000
H     0.161000000    -5.940000000     0.591000000
O     2.102000000     4.415000000     3.098000000
H     1.937000000     5.279000000     3.475000000
H     1.235000000     4.088000000     2.858000000
O     2.479000000     0.382000000    -1.786000000
H     1.811000000     0.121000000    -1.151000000
H     2.245000000    -0.087000000    -2.587000000
O     3.965000000    -2.467000000     3.156000000
H     3.954000000    -1.625000000     2.700000000
H     4.880000000    -2.746000000     3.120000000
O    -3.607000000    -2.559000000     2.060000000
H    -2.745000000    -2.515000000     2.474000000
H    -3.641000000    -1.788000000     1.494000000
O     3.001000000     2.524000000    -0.315000000
H     2.606000000     1.989000000     0.375000000
H     2.901000000     2.001000000    -1.110000000
O     3.703000000     0.598000000     5.946000000
H     3.567000000     1.278000000     5.287000000
H     3.261000000    -0.173000000     5.590000000
O    -3.339000000     4.390000000    -0.145000000
H    -3.577000000     4.092000000     0.733000000
H    -3.195000000     3.583000000    -0.641000000
O    -5.878000000     3.096000000    -3.882000000
H    -6.019000000     3.991000000    -3.571000000
H    -5.912000000     2.559000000    -3.091000000
