158
-3048.79807
C     0.131000000     0.530000000     1.360000000
H     0.028000000     1.069000000     2.298000000
C    -1.049000000     0.553000000     0.604000000
H    -1.963000000     1.089000000     0.848000000
C    -1.035000000     0.030000000    -0.636000000
H    -1.983000000     0.143000000    -1.198000000
C     0.122000000    -0.556000000    -1.176000000
H     0.076000000    -1.011000000    -2.162000000
C     1.261000000    -0.663000000    -0.412000000
H     2.106000000    -1.273000000    -0.718000000
C     1.318000000     0.029000000     0.816000000
C     2.626000000     0.044000000     1.582000000
O     2.621000000     0.262000000     2.752000000
O     3.723000000    -0.143000000     1.048000000
O     4.004000000     1.001000000    -1.723000000
H     3.954000000     0.729000000    -0.806000000
H     3.106000000     1.241000000    -1.951000000
O    -4.892000000     1.267000000    -4.207000000
H    -5.468000000     1.327000000    -4.969000000
H    -5.363000000     0.703000000    -3.594000000
O    -6.164000000     3.875000000    -0.435000000
H    -5.663000000     3.373000000     0.207000000
H    -6.643000000     4.520000000     0.085000000
O    -0.869000000    -3.540000000    -2.532000000
H    -0.491000000    -3.033000000    -3.251000000
H    -0.615000000    -4.444000000    -2.718000000
O     3.957000000     2.676000000     2.246000000
H     3.840000000     1.775000000     1.947000000
H     3.370000000     2.756000000     2.998000000
O     5.114000000    -0.587000000     3.994000000
H     5.714000000     0.071000000     3.642000000
H     4.283000000    -0.415000000     3.551000000
O     0.200000000     0.422000000     5.953000000
H     0.198000000    -0.274000000     5.296000000
H    -0.715000000     0.698000000     6.010000000
O     5.622000000    -0.546000000    -4.028000000
H     5.126000000    -0.999000000    -3.346000000
H     5.247000000     0.334000000    -4.053000000
O     1.123000000    -4.324000000    -0.224000000
H     1.670000000    -4.986000000    -0.646000000
H     1.088000000    -3.605000000    -0.855000000
O     0.114000000    -3.017000000    -5.215000000
H     0.938000000    -3.298000000    -5.613000000
H    -0.420000000    -2.724000000    -5.954000000
O     6.259000000    -0.443000000     0.260000000
H     6.702000000     0.403000000     0.324000000
H     5.328000000    -0.231000000     0.326000000
O    -1.364000000     3.962000000    -0.611000000
H    -1.368000000     4.874000000    -0.901000000
H    -2.134000000     3.575000000    -1.026000000
O     7.440000000     1.904000000     0.311000000
H     8.306000000     1.979000000     0.711000000
H     7.418000000     2.603000000    -0.343000000
O     3.959000000    -2.627000000     2.055000000
H     3.658000000    -1.742000000     1.849000000
H     3.166000000    -3.092000000     2.323000000
O    -2.784000000    -0.774000000     3.416000000
H    -3.278000000    -0.029000000     3.757000000
H    -3.444000000    -1.331000000     3.004000000
O     6.297000000     4.397000000     1.833000000
H     5.475000000     3.909000000     1.776000000
H     6.108000000     5.234000000     1.410000000
O     2.711000000     3.925000000     0.096000000
H     3.106000000     3.830000000     0.963000000
H     1.987000000     4.537000000     0.229000000
O    -0.045000000    -1.339000000     3.709000000
H    -0.761000000    -1.243000000     3.081000000
H     0.669000000    -0.819000000     3.340000000
O     3.011000000    -2.907000000     5.600000000
H     3.190000000    -2.466000000     4.769000000
H     3.563000000    -2.452000000     6.236000000
O     2.059000000     2.345000000     4.809000000
H     1.715000000     1.795000000     5.513000000
H     2.041000000     1.781000000     4.035000000
O    -2.756000000    -0.347000000    -4.826000000
H    -3.379000000     0.380000000    -4.843000000
H    -2.936000000    -0.797000000    -4.001000000
O    -7.809000000     2.292000000    -2.109000000
H    -6.915000000     2.241000000    -1.769000000
H    -8.260000000     2.885000000    -1.508000000
O     2.196000000     1.626000000    -5.413000000
H     2.222000000     1.518000000    -4.462000000
H     1.670000000     0.888000000    -5.722000000
O    -0.195000000     3.640000000     1.843000000
H    -0.762000000     3.249000000     1.179000000
H     0.282000000     4.326000000     1.377000000
O     6.706000000     1.786000000     3.969000000
H     6.440000000     1.919000000     3.059000000
H     6.059000000     2.272000000     4.481000000
O     4.200000000    -5.872000000    -0.975000000
H     4.081000000    -6.408000000    -0.191000000
H     4.662000000    -5.093000000    -0.665000000
O    -2.330000000     3.711000000     3.337000000
H    -1.658000000     3.593000000     2.666000000
H    -1.844000000     3.975000000     4.118000000
O    -7.715000000     0.319000000     1.113000000
H    -7.112000000     0.013000000     0.436000000
H    -7.165000000     0.439000000     1.887000000
O    -3.274000000    -2.126000000    -2.537000000
H    -2.400000000    -2.514000000    -2.567000000
H    -3.869000000    -2.876000000    -2.551000000
O    -0.557000000     4.062000000    -5.125000000
H    -0.795000000     3.643000000    -5.952000000
H     0.097000000     3.477000000    -4.740000000
O     1.609000000     2.135000000    -1.893000000
H     1.826000000     2.817000000    -1.257000000
H     0.882000000     1.658000000    -1.492000000
O     4.789000000    -2.619000000    -1.607000000
H     5.497000000    -3.210000000    -1.351000000
H     4.735000000    -1.986000000    -0.890000000
O    -0.003000000     0.069000000    -5.642000000
H    -0.551000000     0.437000000    -6.335000000
H    -0.568000000    -0.566000000    -5.202000000
O     5.554000000     3.408000000    -1.568000000
H     5.159000000     2.572000000    -1.818000000
H     4.943000000     3.781000000    -0.932000000
O    -3.735000000     2.958000000    -1.684000000
H    -4.558000000     3.348000000    -1.390000000
H    -3.827000000     2.896000000    -2.635000000
O    -6.489000000    -0.747000000    -3.041000000
H    -7.303000000    -0.859000000    -3.533000000
H    -5.978000000    -1.531000000    -3.240000000
O    -3.965000000     1.581000000     4.112000000
H    -3.756000000     2.287000000     3.501000000
H    -4.774000000     1.200000000     3.771000000
O    -5.050000000    -1.424000000     1.335000000
H    -4.567000000    -2.239000000     1.203000000
H    -5.674000000    -1.625000000     2.033000000
O     5.959000000    -4.232000000     0.532000000
H     5.338000000    -3.625000000     0.935000000
H     6.657000000    -4.327000000     1.180000000
O     1.339000000    -3.205000000     2.328000000
H     0.450000000    -3.049000000     2.647000000
H     1.217000000    -3.597000000     1.463000000
O    -0.977000000    -2.670000000     0.596000000
H    -1.045000000    -2.922000000    -0.325000000
H    -0.911000000    -1.715000000     0.579000000
O    -2.763000000    -4.507000000     1.694000000
H    -2.344000000    -3.690000000     1.423000000
H    -2.039000000    -5.123000000     1.805000000
O     7.163000000    -2.274000000     2.275000000
H     7.064000000    -1.558000000     1.648000000
H     6.402000000    -2.195000000     2.851000000
O    -4.402000000    -0.924000000    -6.893000000
H    -3.710000000    -0.830000000    -6.238000000
H    -4.293000000    -1.813000000    -7.231000000
O    -4.687000000     2.226000000     1.271000000
H    -3.822000000     2.560000000     1.032000000
H    -4.851000000     1.518000000     0.649000000
O    -5.447000000     0.344000000    -0.741000000
H    -5.905000000     0.006000000    -1.511000000
H    -5.265000000    -0.432000000    -0.212000000
O     2.256000000    -3.150000000    -2.732000000
H     2.377000000    -2.920000000    -3.653000000
H     3.076000000    -2.889000000    -2.311000000
O    -2.812000000     1.017000000     6.489000000
H    -3.128000000     1.241000000     5.613000000
H    -3.512000000     1.301000000     7.076000000
