158
-3057.09054
C     0.211000000     0.614000000     1.382000000
H     0.191000000     1.127000000     2.340000000
C    -0.904000000    -0.195000000     1.062000000
H    -1.658000000    -0.359000000     1.827000000
C    -0.959000000    -0.700000000    -0.235000000
H    -1.845000000    -1.225000000    -0.512000000
C     0.143000000    -0.587000000    -1.163000000
H     0.133000000    -1.113000000    -2.114000000
C     1.220000000     0.154000000    -0.743000000
H     2.059000000     0.267000000    -1.425000000
C     1.220000000     0.819000000     0.447000000
C     2.343000000     1.780000000     0.694000000
O     2.296000000     2.589000000     1.623000000
O     3.238000000     1.956000000    -0.141000000
O     4.560000000     4.090000000     0.952000000
H     4.016000000     3.382000000     0.606000000
H     5.348000000     3.651000000     1.273000000
O     3.912000000     4.420000000    -3.379000000
H     4.094000000     4.831000000    -2.534000000
H     4.726000000     3.972000000    -3.609000000
O     3.666000000     5.631000000     2.964000000
H     3.731000000     5.068000000     2.192000000
H     3.922000000     6.498000000     2.651000000
O    -2.418000000    -3.781000000    -4.047000000
H    -2.263000000    -2.874000000    -4.310000000
H    -2.070000000    -3.836000000    -3.157000000
O     0.360000000     2.868000000     4.508000000
H     1.283000000     3.120000000     4.505000000
H    -0.011000000     3.326000000     5.263000000
O     3.121000000     3.186000000     4.096000000
H     3.630000000     3.981000000     3.942000000
H     2.857000000     2.898000000     3.222000000
O     4.508000000     1.353000000    -2.570000000
H     4.475000000     1.879000000    -1.771000000
H     3.692000000     1.559000000    -3.026000000
O     2.169000000    -2.618000000     0.895000000
H     2.314000000    -3.532000000     0.653000000
H     1.474000000    -2.321000000     0.307000000
O    -5.974000000    -4.330000000    -0.821000000
H    -5.590000000    -3.823000000    -0.106000000
H    -5.787000000    -3.816000000    -1.607000000
O    -1.491000000    -1.209000000    -4.955000000
H    -0.819000000    -1.614000000    -5.503000000
H    -1.108000000    -0.374000000    -4.684000000
O     5.305000000     0.456000000     0.544000000
H     5.953000000     1.072000000     0.886000000
H     4.514000000     0.982000000     0.424000000
O    -3.154000000     3.021000000     0.446000000
H    -2.852000000     3.820000000     0.878000000
H    -2.350000000     2.565000000     0.198000000
O    -1.649000000    -4.736000000    -6.308000000
H    -1.833000000    -4.285000000    -5.484000000
H    -1.465000000    -4.032000000    -6.930000000
O     4.542000000    -1.878000000     1.778000000
H     4.699000000    -1.156000000     1.170000000
H     3.636000000    -2.139000000     1.611000000
O    -1.433000000     1.728000000    -1.712000000
H    -1.206000000     1.316000000    -2.546000000
H    -1.240000000     1.060000000    -1.054000000
O     1.377000000     6.634000000    -0.233000000
H     0.783000000     7.346000000     0.003000000
H     1.014000000     5.865000000     0.206000000
O     1.030000000     4.882000000     2.170000000
H     1.586000000     5.297000000     2.830000000
H     1.519000000     4.106000000     1.898000000
O     0.947000000    -0.096000000     5.108000000
H     0.792000000     0.755000000     4.697000000
H     1.899000000    -0.150000000     5.195000000
O    -0.112000000    -2.559000000     4.778000000
H     0.328000000    -2.874000000     3.989000000
H     0.281000000    -1.702000000     4.946000000
O     4.693000000     1.805000000     5.969000000
H     4.193000000     2.283000000     5.308000000
H     4.480000000     0.885000000     5.813000000
O     3.787000000    -0.568000000     4.987000000
H     3.633000000    -1.429000000     5.375000000
H     4.139000000    -0.757000000     4.117000000
O     4.050000000     6.073000000    -0.964000000
H     4.358000000     5.450000000    -0.305000000
H     3.245000000     6.435000000    -0.593000000
O     2.448000000    -0.890000000    -3.939000000
H     1.972000000    -0.060000000    -3.949000000
H     3.192000000    -0.746000000    -4.524000000
O    -1.746000000     4.648000000     1.974000000
H    -0.814000000     4.578000000     2.177000000
H    -2.133000000     5.040000000     2.757000000
O     7.883000000    -0.495000000     0.252000000
H     7.632000000    -1.360000000     0.575000000
H     7.069000000     0.008000000     0.255000000
O    -5.143000000    -2.923000000    -3.954000000
H    -4.593000000    -3.705000000    -4.014000000
H    -5.987000000    -3.195000000    -4.314000000
O    -4.239000000     2.602000000     2.992000000
H    -4.062000000     3.295000000     3.628000000
H    -3.834000000     2.912000000     2.181000000
O    -5.069000000    -0.785000000    -0.539000000
H    -4.619000000    -0.914000000     0.296000000
H    -5.990000000    -0.676000000    -0.299000000
O     5.609000000    -1.629000000    -2.482000000
H     5.314000000    -1.235000000    -3.303000000
H     5.445000000    -0.956000000    -1.821000000
O     1.947000000     2.451000000    -3.105000000
H     2.134000000     2.145000000    -2.218000000
H     2.283000000     3.347000000    -3.125000000
O    -0.251000000     1.191000000    -4.229000000
H     0.643000000     1.519000000    -4.127000000
H    -0.745000000     1.941000000    -4.559000000
O     7.097000000     2.262000000     1.573000000
H     7.319000000     3.190000000     1.655000000
H     7.140000000     1.925000000     2.468000000
O    -2.976000000    -6.454000000    -4.017000000
H    -3.070000000    -5.505000000    -4.101000000
H    -2.229000000    -6.671000000    -4.574000000
O    -0.713000000     4.366000000    -2.595000000
H    -0.056000000     4.070000000    -3.225000000
H    -1.200000000     3.573000000    -2.368000000
O    -7.255000000     1.102000000    -3.070000000
H    -6.522000000     0.489000000    -3.132000000
H    -8.019000000     0.589000000    -3.333000000
O     1.428000000    -4.826000000    -2.247000000
H     0.572000000    -4.459000000    -2.465000000
H     2.022000000    -4.075000000    -2.260000000
O    -5.183000000     3.227000000    -4.294000000
H    -5.479000000     4.114000000    -4.089000000
H    -5.012000000     2.829000000    -3.440000000
O    -4.580000000    -3.227000000     1.293000000
H    -4.699000000    -2.447000000     1.834000000
H    -3.859000000    -3.700000000     1.709000000
O    -4.256000000    -0.238000000    -3.261000000
H    -4.478000000    -1.148000000    -3.459000000
H    -4.119000000    -0.226000000    -2.313000000
O    -5.177000000    -0.198000000     2.328000000
H    -4.866000000     0.680000000     2.106000000
H    -6.102000000    -0.194000000     2.082000000
O    -2.738000000    -2.199000000     4.158000000
H    -2.005000000    -2.331000000     4.759000000
H    -2.882000000    -3.059000000     3.764000000
O     0.465000000    -4.201000000     2.638000000
H     0.873000000    -5.066000000     2.585000000
H     1.163000000    -3.591000000     2.402000000
O    -2.249000000    -4.655000000     2.223000000
H    -1.379000000    -4.285000000     2.370000000
H    -2.095000000    -5.592000000     2.107000000
O    -1.682000000    -4.428000000    -1.488000000
H    -1.758000000    -5.377000000    -1.384000000
H    -1.963000000    -4.072000000    -0.645000000
O    -4.884000000     2.687000000    -1.667000000
H    -4.405000000     2.894000000    -0.865000000
H    -4.965000000     1.733000000    -1.658000000
O    -3.638000000     0.644000000     4.848000000
H    -3.734000000     1.105000000     4.015000000
H    -3.486000000    -0.268000000     4.601000000
O    -3.978000000    -1.590000000    -6.753000000
H    -3.714000000    -1.513000000    -5.836000000
H    -4.760000000    -2.142000000    -6.731000000
O     2.909000000    -2.624000000    -2.151000000
H     2.642000000    -1.945000000    -2.771000000
H     3.854000000    -2.708000000    -2.281000000
