158
-3013.29630
C    -1.320000000     0.247000000     0.565000000
H    -2.404000000     0.289000000     0.633000000
C    -0.748000000    -1.009000000     0.385000000
H    -1.305000000    -1.940000000     0.443000000
C     0.521000000    -1.104000000    -0.178000000
H     0.964000000    -2.092000000    -0.316000000
C     1.240000000     0.038000000    -0.464000000
H     2.264000000     0.054000000    -0.827000000
C     0.767000000     1.295000000    -0.050000000
H     1.311000000     2.214000000    -0.254000000
C    -0.569000000     1.438000000     0.391000000
C    -1.219000000     2.718000000     0.695000000
O    -2.303000000     2.781000000     1.228000000
O    -0.663000000     3.786000000     0.570000000
O     1.656000000     4.678000000     1.108000000
H     0.722000000     4.474000000     1.080000000
H     2.039000000     3.977000000     1.635000000
O    -4.147000000     1.866000000    -2.771000000
H    -3.537000000     2.225000000    -3.415000000
H    -4.752000000     1.332000000    -3.286000000
O     1.612000000    -0.667000000    -3.910000000
H     0.984000000    -0.864000000    -4.605000000
H     1.252000000     0.105000000    -3.474000000
O    -3.989000000     1.413000000     3.015000000
H    -3.975000000     0.456000000     3.017000000
H    -3.522000000     1.658000000     2.217000000
O    -2.515000000    -5.686000000    -2.043000000
H    -1.597000000    -5.876000000    -1.852000000
H    -3.005000000    -6.320000000    -1.520000000
O    -0.124000000    -6.354000000    -1.242000000
H     0.488000000    -7.057000000    -1.024000000
H     0.408000000    -5.558000000    -1.215000000
O     2.700000000     2.445000000     2.708000000
H     3.636000000     2.245000000     2.702000000
H     2.534000000     2.788000000     3.586000000
O    -5.340000000     5.089000000     0.512000000
H    -5.162000000     4.217000000     0.161000000
H    -4.896000000     5.101000000     1.360000000
O    -4.238000000    -3.921000000    -3.116000000
H    -3.845000000    -3.074000000    -3.327000000
H    -3.554000000    -4.390000000    -2.639000000
O     5.591000000     3.096000000    -1.696000000
H     6.237000000     3.635000000    -1.239000000
H     5.739000000     2.211000000    -1.362000000
O    -6.214000000     2.163000000     4.628000000
H    -5.553000000     1.690000000     4.122000000
H    -5.713000000     2.639000000     5.290000000
O    -4.684000000     2.505000000    -0.114000000
H    -3.891000000     2.570000000     0.418000000
H    -4.382000000     2.152000000    -0.951000000
O    -1.419000000     6.345000000    -0.189000000
H    -1.313000000     5.517000000     0.279000000
H    -1.141000000     7.012000000     0.438000000
O    -0.726000000     4.484000000    -2.381000000
H    -1.629000000     4.587000000    -2.683000000
H    -0.804000000     4.331000000    -1.440000000
O    -0.877000000     5.851000000     3.727000000
H    -0.565000000     6.376000000     4.464000000
H    -0.919000000     4.958000000     4.069000000
O    -1.459000000     2.915000000     4.152000000
H    -2.130000000     2.638000000     3.528000000
H    -0.784000000     2.239000000     4.093000000
O     0.471000000     1.127000000     3.764000000
H     0.636000000     0.251000000     4.111000000
H     1.234000000     1.315000000     3.217000000
O     1.679000000    -4.416000000    -1.772000000
H     2.012000000    -3.723000000    -2.342000000
H     2.343000000    -4.501000000    -1.087000000
O     1.000000000     6.831000000    -1.568000000
H     0.078000000     6.636000000    -1.402000000
H     1.408000000     5.973000000    -1.685000000
O     1.675000000    -3.462000000    -5.158000000
H     1.053000000    -3.132000000    -4.509000000
H     1.553000000    -2.893000000    -5.917000000
O    -1.132000000    -5.391000000     1.388000000
H    -0.907000000    -5.508000000     0.465000000
H    -0.843000000    -6.201000000     1.809000000
O     3.068000000    -4.785000000     0.751000000
H     3.294000000    -5.499000000     0.155000000
H     3.219000000    -5.146000000     1.624000000
O    -3.062000000     5.076000000     2.180000000
H    -2.168000000     5.244000000     2.478000000
H    -3.015000000     4.223000000     1.748000000
O     1.383000000     7.432000000     1.836000000
H     1.458000000     6.478000000     1.801000000
H     1.547000000     7.652000000     2.753000000
O     4.267000000    -1.268000000    -3.148000000
H     4.150000000    -1.856000000    -2.402000000
H     3.401000000    -0.887000000    -3.291000000
O    -0.983000000     0.211000000    -2.693000000
H    -0.622000000     0.196000000    -1.806000000
H    -0.497000000     0.905000000    -3.138000000
O    -7.274000000     1.471000000     0.344000000
H    -6.366000000     1.774000000     0.327000000
H    -7.525000000     1.519000000     1.267000000
O     6.850000000    -0.191000000     1.050000000
H     6.309000000    -0.143000000     0.261000000
H     7.627000000     0.326000000     0.839000000
O    -3.278000000    -4.064000000     2.380000000
H    -2.558000000    -4.645000000     2.137000000
H    -3.497000000    -4.316000000     3.277000000
O     0.185000000    -6.967000000    -4.246000000
H     0.076000000    -6.438000000    -3.456000000
H    -0.341000000    -6.519000000    -4.909000000
O     5.739000000    -5.037000000    -2.322000000
H     6.002000000    -5.695000000    -2.965000000
H     5.038000000    -5.457000000    -1.824000000
O    -4.033000000     6.896000000    -0.986000000
H    -3.092000000     6.765000000    -1.098000000
H    -4.272000000     6.312000000    -0.266000000
O     2.966000000     4.659000000    -1.647000000
H     3.888000000     4.915000000    -1.625000000
H     2.716000000     4.585000000    -0.725000000
O    -0.345000000    -4.240000000     4.089000000
H    -0.176000000    -4.985000000     3.513000000
H    -1.062000000    -4.530000000     4.652000000
O     3.267000000    -0.641000000     1.737000000
H     3.007000000     0.257000000     1.942000000
H     3.379000000    -1.059000000     2.591000000
O     0.730000000     2.323000000    -3.289000000
H     1.532000000     2.692000000    -3.659000000
H     0.278000000     3.072000000    -2.901000000
O    -0.308000000    -1.349000000    -5.660000000
H    -0.596000000    -0.779000000    -6.373000000
H    -1.107000000    -1.787000000    -5.367000000
O     3.085000000     3.587000000    -4.183000000
H     3.126000000     4.204000000    -3.453000000
H     3.974000000     3.238000000    -4.251000000
O     5.265000000     1.808000000    -4.243000000
H     4.841000000     0.996000000    -3.966000000
H     5.513000000     2.240000000    -3.426000000
O    -5.699000000    -4.642000000     0.810000000
H    -4.842000000    -4.224000000     0.898000000
H    -5.911000000    -4.942000000     1.695000000
O     3.808000000    -2.230000000    -0.461000000
H     3.456000000    -1.709000000     0.260000000
H     3.867000000    -3.118000000    -0.109000000
O    -4.646000000     5.647000000     4.554000000
H    -3.904000000     5.620000000     5.158000000
H    -4.320000000     5.233000000     3.756000000
O    -2.347000000    -2.218000000     5.440000000
H    -2.450000000    -3.166000000     5.355000000
H    -2.495000000    -1.880000000     4.556000000
O     0.698000000    -1.766000000     3.893000000
H     0.363000000    -2.658000000     3.802000000
H     0.572000000    -1.373000000     3.030000000
O     5.667000000     0.388000000    -1.212000000
H     6.172000000     0.094000000    -1.971000000
H     4.811000000    -0.027000000    -1.319000000
O    -3.574000000    -1.240000000     2.643000000
H    -4.499000000    -1.215000000     2.399000000
H    -3.345000000    -2.170000000     2.620000000
O    -3.167000000    -1.285000000    -2.900000000
H    -2.515000000    -0.593000000    -2.787000000
H    -3.786000000    -1.151000000    -2.182000000
O    -6.259000000    -1.268000000     1.099000000
H    -6.142000000    -1.648000000     0.228000000
H    -6.555000000    -0.373000000     0.932000000
