158
-3021.74765
C    -1.489000000     0.207000000     0.114000000
H    -2.567000000     0.203000000    -0.029000000
C    -0.835000000    -0.898000000    -0.514000000
H    -1.410000000    -1.650000000    -1.048000000
C     0.570000000    -0.968000000    -0.497000000
H     1.080000000    -1.837000000    -0.916000000
C     1.303000000    -0.061000000     0.216000000
H     2.356000000    -0.330000000     0.207000000
C     0.699000000     1.041000000     0.841000000
H     1.295000000     1.734000000     1.430000000
C    -0.704000000     1.272000000     0.727000000
C    -1.291000000     2.580000000     1.156000000
O    -2.513000000     2.678000000     1.173000000
O    -0.606000000     3.510000000     1.552000000
O     1.305000000     5.204000000     2.130000000
H     0.603000000     4.605000000     1.876000000
H     1.529000000     4.946000000     3.024000000
O    -4.377000000     4.076000000    -1.886000000
H    -3.642000000     3.765000000    -2.415000000
H    -5.141000000     3.631000000    -2.254000000
O     3.808000000     0.637000000    -3.264000000
H     3.523000000    -0.277000000    -3.261000000
H     2.997000000     1.142000000    -3.198000000
O    -3.774000000     1.604000000     3.218000000
H    -3.552000000     0.677000000     3.135000000
H    -3.452000000     2.001000000     2.409000000
O    -2.595000000    -5.103000000     0.039000000
H    -2.437000000    -4.412000000     0.683000000
H    -1.904000000    -5.744000000     0.202000000
O     3.681000000    -0.599000000     3.405000000
H     3.905000000     0.004000000     4.114000000
H     2.789000000    -0.884000000     3.606000000
O    -0.450000000    -6.924000000    -0.191000000
H     0.441000000    -7.194000000     0.032000000
H    -0.334000000    -6.217000000    -0.826000000
O     1.302000000     0.398000000    -6.495000000
H     1.946000000    -0.147000000    -6.948000000
H     0.713000000    -0.228000000    -6.073000000
O    -1.931000000     3.104000000    -2.808000000
H    -1.454000000     3.499000000    -2.078000000
H    -1.556000000     3.513000000    -3.588000000
O    -0.252000000    -1.868000000    -5.961000000
H    -1.115000000    -2.042000000    -5.583000000
H    -0.389000000    -1.924000000    -6.906000000
O    -5.501000000     4.671000000     1.932000000
H    -5.324000000     3.952000000     1.325000000
H    -4.646000000     5.073000000     2.083000000
O    -5.024000000    -0.886000000    -0.619000000
H    -4.665000000    -0.156000000    -1.124000000
H    -5.369000000    -0.480000000     0.176000000
O     4.560000000     3.584000000     0.767000000
H     5.082000000     3.267000000     1.503000000
H     4.870000000     4.477000000     0.620000000
O    -2.793000000    -5.196000000    -3.160000000
H    -2.546000000    -4.851000000    -2.302000000
H    -3.748000000    -5.257000000    -3.128000000
O    -5.345000000     2.378000000     5.175000000
H    -4.877000000     2.037000000     4.413000000
H    -5.179000000     1.736000000     5.865000000
O    -5.093000000     2.077000000     0.553000000
H    -4.227000000     2.448000000     0.724000000
H    -5.174000000     2.089000000    -0.401000000
O    -0.793000000     7.025000000     0.840000000
H    -1.043000000     6.125000000     1.051000000
H    -0.302000000     7.323000000     1.606000000
O    -0.380000000     4.593000000    -1.096000000
H     0.560000000     4.717000000    -0.964000000
H    -0.695000000     4.247000000    -0.261000000
O    -3.130000000    -1.924000000    -5.496000000
H    -3.701000000    -1.727000000    -4.753000000
H    -3.475000000    -2.743000000    -5.853000000
O    -2.198000000     2.506000000     5.943000000
H    -2.597000000     2.246000000     5.112000000
H    -2.548000000     1.885000000     6.581000000
O     0.792000000     0.675000000     5.159000000
H     0.863000000    -0.011000000     4.495000000
H     0.712000000     1.486000000     4.657000000
O     0.852000000    -4.790000000    -1.310000000
H     0.673000000    -4.005000000    -1.828000000
H     0.982000000    -4.464000000    -0.419000000
O     2.133000000    -4.374000000    -5.202000000
H     2.083000000    -4.788000000    -6.064000000
H     1.220000000    -4.253000000    -4.941000000
O     3.225000000    -2.177000000    -3.560000000
H     3.727000000    -2.147000000    -4.374000000
H     2.441000000    -2.680000000    -3.781000000
O     1.035000000    -4.058000000     2.217000000
H     1.821000000    -4.013000000     2.762000000
H     0.514000000    -4.761000000     2.605000000
O    -0.972000000     5.559000000     4.334000000
H    -0.143000000     5.083000000     4.390000000
H    -0.720000000     6.482000000     4.347000000
O    -0.332000000    -6.030000000    -4.287000000
H     0.055000000    -6.589000000    -3.613000000
H    -1.197000000    -5.805000000    -3.945000000
O     3.120000000    -5.682000000    -2.790000000
H     2.322000000    -5.608000000    -2.266000000
H     3.055000000    -4.971000000    -3.428000000
O    -2.917000000     5.147000000     2.119000000
H    -2.382000000     5.432000000     2.860000000
H    -2.646000000     4.243000000     1.961000000
O     0.932000000     7.831000000     2.766000000
H     1.307000000     6.967000000     2.592000000
H     1.262000000     8.065000000     3.633000000
O     5.158000000    -1.728000000    -1.718000000
H     4.677000000    -2.260000000    -1.083000000
H     4.574000000    -1.674000000    -2.475000000
O    -0.858000000     0.399000000    -3.611000000
H    -1.249000000     1.227000000    -3.892000000
H    -1.272000000     0.212000000    -2.769000000
O    -7.036000000     0.491000000     1.552000000
H    -6.324000000     1.128000000     1.498000000
H    -7.733000000     0.949000000     2.022000000
O    -1.863000000    -3.198000000     1.730000000
H    -0.988000000    -3.443000000     2.032000000
H    -2.454000000    -3.567000000     2.386000000
O     2.438000000     4.788000000    -0.681000000
H     2.901000000     3.979000000    -0.901000000
H     2.394000000     4.786000000     0.275000000
O     5.059000000    -0.904000000     1.114000000
H     4.773000000    -0.191000000     0.543000000
H     4.595000000    -0.753000000     1.938000000
O     1.576000000     2.295000000    -2.918000000
H     1.460000000     3.226000000    -3.105000000
H     0.733000000     1.899000000    -3.139000000
O     0.388000000    -2.528000000    -3.440000000
H    -0.055000000    -2.406000000    -4.279000000
H     0.163000000    -1.747000000    -2.934000000
O    -1.888000000     6.592000000    -2.372000000
H    -2.034000000     7.307000000    -1.754000000
H    -1.622000000     5.853000000    -1.825000000
O     3.302000000    -3.456000000     0.121000000
H     2.968000000    -2.979000000     0.880000000
H     3.395000000    -4.358000000     0.427000000
O     2.051000000     4.431000000     4.618000000
H     1.519000000     4.454000000     5.414000000
H     2.954000000     4.487000000     4.931000000
O     6.892000000     0.403000000    -2.411000000
H     7.023000000     0.877000000    -1.590000000
H     6.064000000    -0.061000000    -2.290000000
O     0.692000000    -1.134000000     3.053000000
H     0.560000000    -2.005000000     2.679000000
H     0.477000000    -0.532000000     2.340000000
O     6.568000000    -3.287000000     0.825000000
H     6.624000000    -3.393000000     1.775000000
H     5.958000000    -2.560000000     0.701000000
O     4.579000000     1.200000000    -0.645000000
H     4.121000000     1.367000000    -1.469000000
H     4.330000000     1.932000000    -0.081000000
O    -2.846000000    -0.940000000     2.821000000
H    -3.708000000    -1.350000000     2.750000000
H    -2.346000000    -1.305000000     2.091000000
O    -3.690000000     0.954000000    -2.232000000
H    -3.076000000     1.687000000    -2.286000000
H    -4.299000000     1.098000000    -2.956000000
O    -5.166000000    -1.864000000    -3.608000000
H    -4.933000000    -1.938000000    -2.683000000
H    -5.899000000    -1.248000000    -3.622000000
