158
-3051.13244
C    -0.140000000     0.504000000     1.361000000
H    -0.462000000     0.873000000     2.332000000
C    -1.072000000    -0.295000000     0.675000000
H    -2.039000000    -0.557000000     1.097000000
C    -0.744000000    -0.834000000    -0.538000000
H    -1.407000000    -1.570000000    -1.032000000
C     0.527000000    -0.505000000    -1.068000000
H     0.803000000    -0.878000000    -2.051000000
C     1.332000000     0.425000000    -0.465000000
H     2.258000000     0.679000000    -0.975000000
C     1.036000000     0.945000000     0.786000000
C     1.805000000     2.030000000     1.420000000
O     1.242000000     2.862000000     2.127000000
O     2.949000000     2.219000000     1.086000000
O     4.521000000     4.371000000     0.961000000
H     3.889000000     3.688000000     1.186000000
H     5.368000000     4.007000000     1.220000000
O    -2.390000000    -5.448000000     0.880000000
H    -3.188000000    -5.841000000     1.232000000
H    -2.356000000    -5.745000000    -0.029000000
O     3.756000000     6.844000000     3.021000000
H     3.942000000     6.113000000     2.432000000
H     3.683000000     7.604000000     2.444000000
O    -1.494000000    -2.667000000    -3.304000000
H    -1.675000000    -2.400000000    -4.204000000
H    -0.938000000    -3.442000000    -3.391000000
O     1.724000000     2.316000000     4.999000000
H     1.661000000     2.418000000     4.050000000
H     1.392000000     3.142000000     5.351000000
O     3.815000000     0.662000000     4.824000000
H     4.599000000     1.151000000     4.574000000
H     3.146000000     1.335000000     4.957000000
O    -1.990000000    -6.269000000    -1.554000000
H    -2.070000000    -7.063000000    -2.081000000
H    -1.402000000    -5.705000000    -2.057000000
O     5.318000000     1.868000000    -3.841000000
H     5.031000000     1.855000000    -2.927000000
H     6.271000000     1.796000000    -3.793000000
O     1.063000000    -2.379000000     1.441000000
H     1.573000000    -2.969000000     0.886000000
H     0.544000000    -1.861000000     0.826000000
O    -4.365000000    -3.436000000    -0.088000000
H    -3.532000000    -3.114000000     0.258000000
H    -4.310000000    -3.280000000    -1.030000000
O     0.192000000    -2.291000000    -5.588000000
H     0.429000000    -1.902000000    -6.429000000
H     0.541000000    -1.683000000    -4.936000000
O     4.802000000     0.173000000     1.113000000
H     4.495000000    -0.150000000     1.960000000
H     4.282000000     0.962000000     0.955000000
O    -1.766000000    -4.725000000    -5.779000000
H    -1.620000000    -4.994000000    -6.687000000
H    -1.145000000    -4.010000000    -5.639000000
O    -2.551000000     5.051000000     0.128000000
H    -2.132000000     4.463000000     0.756000000
H    -2.882000000     4.472000000    -0.559000000
O    -0.761000000     1.796000000    -3.252000000
H    -0.974000000     1.307000000    -4.047000000
H    -0.087000000     1.269000000    -2.821000000
O     1.994000000     6.260000000    -0.555000000
H     1.292000000     5.736000000    -0.942000000
H     2.651000000     5.618000000    -0.286000000
O     2.280000000     3.340000000    -2.987000000
H     1.690000000     3.874000000    -2.455000000
H     2.916000000     2.991000000    -2.363000000
O     1.256000000     5.499000000     3.564000000
H     2.105000000     5.919000000     3.421000000
H     1.251000000     4.758000000     2.959000000
O     0.159000000    -0.241000000     5.582000000
H     0.586000000    -0.572000000     6.372000000
H     0.359000000     0.695000000     5.576000000
O     3.241000000    -1.922000000    -4.233000000
H     2.944000000    -1.049000000    -3.976000000
H     3.125000000    -1.943000000    -5.183000000
O    -1.410000000     3.740000000     2.345000000
H    -0.500000000     3.499000000     2.176000000
H    -1.493000000     3.707000000     3.298000000
O     6.211000000    -1.484000000    -0.818000000
H     6.169000000    -2.208000000    -0.193000000
H     5.872000000    -0.730000000    -0.335000000
O    -3.765000000    -1.748000000    -2.008000000
H    -2.911000000    -1.840000000    -2.431000000
H    -4.307000000    -1.299000000    -2.656000000
O    -4.150000000     4.420000000     2.815000000
H    -3.298000000     4.199000000     2.438000000
H    -4.695000000     4.642000000     2.060000000
O    -4.497000000     0.313000000     1.743000000
H    -4.199000000    -0.493000000     2.165000000
H    -5.415000000     0.147000000     1.531000000
O    -4.140000000    -2.426000000    -4.777000000
H    -4.136000000    -2.709000000    -5.692000000
H    -3.990000000    -3.228000000    -4.277000000
O     0.368000000    -5.265000000     1.731000000
H     0.380000000    -4.381000000     2.097000000
H    -0.513000000    -5.363000000     1.370000000
O     4.362000000     2.474000000    -1.339000000
H     4.136000000     2.116000000    -0.480000000
H     4.674000000     3.360000000    -1.155000000
O    -1.771000000    -4.542000000     3.679000000
H    -2.122000000    -4.677000000     2.798000000
H    -1.601000000    -3.601000000     3.728000000
O     2.253000000     0.622000000    -4.218000000
H     2.660000000     1.247000000    -3.618000000
H     1.733000000     1.163000000    -4.812000000
O     6.110000000     1.881000000     4.448000000
H     6.493000000     2.712000000     4.168000000
H     6.566000000     1.670000000     5.263000000
O    -6.019000000    -4.130000000     1.799000000
H    -5.956000000    -3.547000000     2.556000000
H    -5.580000000    -3.656000000     1.094000000
O    -0.104000000    -5.308000000    -2.979000000
H     0.039000000    -5.826000000    -3.772000000
H     0.749000000    -4.914000000    -2.794000000
O     0.101000000     4.222000000    -1.453000000
H    -0.485000000     4.182000000    -2.209000000
H    -0.313000000     3.658000000    -0.800000000
O    -3.795000000    -2.038000000     2.993000000
H    -4.271000000    -2.424000000     3.729000000
H    -2.875000000    -2.085000000     3.253000000
O    -0.677000000     7.545000000     3.790000000
H     0.074000000     6.968000000     3.647000000
H    -0.971000000     7.339000000     4.677000000
O    -4.253000000     1.501000000    -0.746000000
H    -4.269000000     0.580000000    -1.006000000
H    -4.216000000     1.479000000     0.211000000
O    -4.712000000     1.626000000     4.484000000
H    -4.777000000     2.580000000     4.457000000
H    -4.524000000     1.372000000     3.580000000
O     3.424000000    -3.655000000     0.621000000
H     4.170000000    -3.120000000     0.891000000
H     3.558000000    -4.494000000     1.063000000
O    -1.607000000     3.919000000     4.971000000
H    -0.843000000     4.267000000     5.431000000
H    -1.786000000     3.084000000     5.403000000
O    -6.271000000    -0.970000000    -0.220000000
H    -5.619000000    -1.496000000    -0.684000000
H    -6.988000000    -0.870000000    -0.847000000
O     2.250000000    -3.722000000     3.509000000
H     2.492000000    -4.581000000     3.164000000
H     1.735000000    -3.320000000     2.810000000
O    -0.734000000    -1.700000000     3.465000000
H    -0.243000000    -1.221000000     4.133000000
H    -0.166000000    -1.686000000     2.694000000
O    -3.777000000    -5.431000000    -3.946000000
H    -3.090000000    -5.048000000    -4.492000000
H    -3.317000000    -6.057000000    -3.387000000
O    -3.169000000     3.628000000    -2.263000000
H    -2.770000000     3.209000000    -3.026000000
H    -3.698000000     2.939000000    -1.861000000
O    -2.168000000     1.301000000     5.838000000
H    -1.656000000     0.671000000     5.330000000
H    -3.011000000     1.343000000     5.388000000
O    -2.300000000     0.241000000    -5.426000000
H    -2.559000000     1.006000000    -5.939000000
H    -2.888000000    -0.455000000    -5.721000000
O     2.142000000    -3.901000000    -1.927000000
H     2.137000000    -3.097000000    -2.447000000
H     2.748000000    -3.718000000    -1.209000000
