158
-3040.93135
C     1.178000000     0.019000000     0.864000000
H     1.973000000     0.262000000     1.565000000
C     0.617000000     1.143000000     0.234000000
H     1.123000000     2.105000000     0.254000000
C    -0.543000000     0.957000000    -0.553000000
H    -1.025000000     1.872000000    -1.100000000
C    -1.039000000    -0.313000000    -0.730000000
H    -1.910000000    -0.350000000    -1.379000000
C    -0.530000000    -1.414000000    -0.092000000
H    -0.942000000    -2.418000000    -0.156000000
C     0.563000000    -1.249000000     0.800000000
C     1.235000000    -2.496000000     1.421000000
O     1.978000000    -2.479000000     2.418000000
O     0.957000000    -3.574000000     0.971000000
O    -4.969000000     4.892000000     0.105000000
H    -5.710000000     5.470000000     0.286000000
H    -4.685000000     4.588000000     0.967000000
O     0.047000000     5.718000000     2.940000000
H     0.056000000     6.668000000     3.059000000
H    -0.834000000     5.525000000     2.619000000
O     1.962000000    -6.231000000    -3.107000000
H     2.590000000    -5.776000000    -3.668000000
H     1.517000000    -5.532000000    -2.628000000
O     5.821000000     2.803000000     3.055000000
H     5.495000000     3.101000000     3.904000000
H     5.697000000     1.854000000     3.071000000
O     5.015000000    -1.502000000     1.709000000
H     4.641000000    -0.796000000     2.236000000
H     4.868000000    -2.292000000     2.228000000
O    -4.202000000     1.660000000     1.106000000
H    -4.905000000     2.119000000     0.648000000
H    -4.164000000     0.800000000     0.687000000
O     4.904000000     2.513000000    -1.520000000
H     5.398000000     2.731000000    -0.729000000
H     5.563000000     2.485000000    -2.214000000
O    -2.944000000    -2.418000000     2.903000000
H    -2.167000000    -2.201000000     3.419000000
H    -2.728000000    -2.135000000     2.015000000
O    -4.269000000    -0.294000000    -4.309000000
H    -3.554000000    -0.877000000    -4.054000000
H    -4.876000000    -0.857000000    -4.790000000
O    -2.400000000    -2.195000000    -4.022000000
H    -2.771000000    -2.981000000    -3.623000000
H    -2.069000000    -2.490000000    -4.870000000
O     1.562000000    -4.249000000    -1.365000000
H     2.114000000    -3.584000000    -1.776000000
H     1.460000000    -3.951000000    -0.462000000
O     0.510000000     5.082000000    -1.605000000
H     1.275000000     4.875000000    -1.068000000
H    -0.171000000     5.315000000    -0.973000000
O     3.809000000    -0.695000000    -0.590000000
H     4.231000000     0.149000000    -0.754000000
H     4.151000000    -0.972000000     0.260000000
O     3.946000000    -4.004000000     2.885000000
H     3.224000000    -3.381000000     2.811000000
H     3.560000000    -4.849000000     2.654000000
O    -0.325000000     0.854000000     4.690000000
H    -1.002000000     0.770000000     4.018000000
H     0.350000000     1.398000000     4.283000000
O    -0.592000000    -1.855000000     3.854000000
H    -0.352000000    -1.112000000     4.408000000
H     0.208000000    -2.377000000     3.793000000
O     2.545000000    -1.170000000     4.695000000
H     2.421000000    -1.615000000     3.856000000
H     2.232000000    -1.796000000     5.347000000
O     4.522000000     0.529000000     3.788000000
H     3.966000000     1.298000000     3.912000000
H     4.265000000    -0.068000000     4.491000000
O    -4.612000000     3.928000000    -2.543000000
H    -4.981000000     4.116000000    -1.680000000
H    -4.993000000     3.085000000    -2.788000000
O     1.736000000    -1.164000000    -2.503000000
H     1.030000000    -0.639000000    -2.127000000
H     2.508000000    -0.935000000    -1.986000000
O     1.275000000    -3.581000000     6.088000000
H     0.848000000    -4.006000000     6.832000000
H     0.964000000    -4.066000000     5.324000000
O     1.918000000     1.462000000    -5.205000000
H     2.261000000     1.947000000    -4.454000000
H     1.088000000     1.098000000    -4.897000000
O    -2.497000000     5.532000000     2.171000000
H    -3.046000000     6.315000000     2.223000000
H    -3.073000000     4.818000000     2.444000000
O    -1.906000000     6.113000000    -5.736000000
H    -2.402000000     6.612000000    -5.087000000
H    -1.542000000     5.377000000    -5.245000000
O     1.869000000     6.828000000     0.908000000
H     2.394000000     6.221000000     0.386000000
H     1.303000000     6.262000000     1.434000000
O     0.306000000    -6.035000000     5.110000000
H     0.020000000    -5.868000000     4.212000000
H     1.100000000    -6.561000000     5.015000000
O    -1.955000000     4.032000000    -3.288000000
H    -1.314000000     4.312000000    -2.635000000
H    -2.800000000     4.290000000    -2.920000000
O     2.966000000     4.531000000    -0.371000000
H     3.211000000     4.297000000     0.524000000
H     3.717000000     5.022000000    -0.704000000
O    -1.623000000     2.182000000    -5.241000000
H    -1.265000000     1.359000000    -4.908000000
H    -1.856000000     2.677000000    -4.456000000
O    -3.473000000    -4.357000000    -2.997000000
H    -4.371000000    -4.686000000    -2.970000000
H    -2.930000000    -5.127000000    -2.826000000
O    -3.984000000     1.498000000    -6.423000000
H    -3.132000000     1.855000000    -6.173000000
H    -4.213000000     0.903000000    -5.710000000
O     2.632000000     2.811000000    -3.026000000
H     2.041000000     3.372000000    -2.524000000
H     3.381000000     2.674000000    -2.446000000
O     5.414000000    -3.507000000     4.949000000
H     4.914000000    -3.745000000     4.168000000
H     4.926000000    -3.898000000     5.674000000
O    -0.786000000    -5.383000000     2.613000000
H    -0.341000000    -4.826000000     1.975000000
H    -1.661000000    -5.515000000     2.246000000
O     1.987000000    -7.563000000    -0.564000000
H     2.128000000    -7.278000000    -1.467000000
H     1.527000000    -8.398000000    -0.645000000
O    -6.229000000     1.835000000    -3.275000000
H    -6.852000000     1.784000000    -4.000000000
H    -5.570000000     1.170000000    -3.478000000
O    -0.496000000    -5.895000000    -0.301000000
H     0.361000000    -6.078000000    -0.688000000
H    -0.419000000    -5.005000000     0.041000000
O    -4.012000000    -1.049000000     0.395000000
H    -3.844000000    -1.935000000     0.075000000
H    -4.842000000    -1.118000000     0.866000000
O    -6.279000000    -1.388000000    -1.055000000
H    -5.368000000    -1.167000000    -1.246000000
H    -6.479000000    -0.908000000    -0.251000000
O    -4.537000000     3.722000000     2.733000000
H    -4.393000000     2.933000000     2.210000000
H    -5.124000000     3.440000000     3.434000000
O     2.249000000    -5.722000000     1.808000000
H     1.850000000    -4.856000000     1.726000000
H     2.130000000    -6.122000000     0.946000000
O    -1.983000000     0.669000000     2.687000000
H    -2.852000000     0.922000000     2.375000000
H    -1.431000000     0.694000000     1.906000000
O    -0.566000000    -0.261000000    -4.603000000
H    -1.326000000    -0.694000000    -4.214000000
H     0.018000000    -0.978000000    -4.849000000
O    -0.759000000     7.166000000    -2.820000000
H    -0.399000000     6.294000000    -2.984000000
H    -1.684000000     7.090000000    -3.054000000
O    -2.201000000     5.026000000    -0.665000000
H    -2.159000000     5.213000000     0.273000000
H    -3.112000000     5.197000000    -0.903000000
O     1.364000000    -2.175000000    -4.867000000
H     1.650000000    -1.849000000    -4.014000000
H     2.174000000    -2.295000000    -5.362000000
O    -3.502000000    -3.771000000    -0.050000000
H    -3.644000000    -4.015000000    -0.964000000
H    -3.352000000    -4.602000000     0.399000000
O     0.627000000    -8.103000000     2.611000000
H     0.920000000    -7.201000000     2.482000000
H     0.047000000    -8.276000000     1.870000000
