158
-3018.40905
C     0.821000000    -0.363000000     1.251000000
H     1.362000000    -0.525000000     2.180000000
C     0.927000000     0.857000000     0.574000000
H     1.568000000     1.624000000     1.001000000
C     0.161000000     1.101000000    -0.541000000
H     0.160000000     2.130000000    -1.068000000
C    -0.716000000     0.107000000    -0.992000000
H    -1.409000000     0.286000000    -1.810000000
C    -0.834000000    -1.047000000    -0.371000000
H    -1.466000000    -1.816000000    -0.809000000
C    -0.085000000    -1.353000000     0.710000000
C    -0.188000000    -2.678000000     1.372000000
O     0.009000000    -2.713000000     2.575000000
O    -0.639000000    -3.607000000     0.823000000
O     3.462000000    -0.277000000    -3.644000000
H     3.087000000    -0.266000000    -2.763000000
H     4.113000000    -0.977000000    -3.619000000
O    -3.679000000     3.031000000     0.168000000
H    -4.050000000     3.913000000     0.196000000
H    -3.535000000     2.803000000     1.086000000
O     1.359000000    -3.282000000    -3.363000000
H     1.066000000    -2.532000000    -3.881000000
H     1.656000000    -2.900000000    -2.537000000
O     0.899000000     5.535000000     2.720000000
H     0.165000000     5.117000000     3.170000000
H     1.357000000     4.814000000     2.288000000
O     2.819000000     3.850000000     1.522000000
H     3.139000000     2.948000000     1.529000000
H     3.600000000     4.382000000     1.673000000
O    -4.755000000     0.102000000    -0.476000000
H    -5.124000000     0.952000000    -0.719000000
H    -3.809000000     0.245000000    -0.469000000
O    -5.150000000     3.838000000    -3.787000000
H    -4.354000000     3.414000000    -3.466000000
H    -5.811000000     3.146000000    -3.774000000
O    -4.374000000    -2.065000000    -4.664000000
H    -3.669000000    -2.711000000    -4.628000000
H    -3.937000000    -1.225000000    -4.522000000
O     0.154000000    -4.979000000    -1.135000000
H     1.095000000    -4.938000000    -0.968000000
H    -0.241000000    -4.512000000    -0.399000000
O    -1.933000000     1.425000000     2.295000000
H    -1.982000000     0.601000000     2.780000000
H    -1.426000000     1.212000000     1.512000000
O     0.463000000     2.057000000    -3.659000000
H     1.094000000     2.527000000    -4.204000000
H     0.082000000     2.732000000    -3.096000000
O     3.076000000    -5.216000000    -0.072000000
H     3.098000000    -5.641000000    -0.930000000
H     2.469000000    -5.748000000     0.443000000
O     5.108000000    -1.788000000     3.197000000
H     5.946000000    -2.134000000     3.506000000
H     4.558000000    -1.757000000     3.980000000
O    -1.569000000    -4.602000000     3.698000000
H    -0.730000000    -4.188000000     3.492000000
H    -2.130000000    -4.390000000     2.952000000
O    -3.333000000    -4.646000000     5.664000000
H    -2.765000000    -4.851000000     4.921000000
H    -4.214000000    -4.617000000     5.291000000
O    -0.671000000    -2.665000000    -6.241000000
H    -0.285000000    -2.302000000    -5.444000000
H    -0.200000000    -3.487000000    -6.382000000
O     3.334000000    -2.663000000     1.130000000
H     3.851000000    -2.532000000     1.924000000
H     3.407000000    -3.600000000     0.949000000
O     3.983000000     1.362000000     2.022000000
H     4.349000000     0.487000000     2.146000000
H     4.740000000     1.947000000     2.061000000
O    -2.831000000     3.609000000    -5.592000000
H    -3.622000000     3.805000000    -5.090000000
H    -3.126000000     3.018000000    -6.285000000
O     2.325000000     0.332000000    -6.214000000
H     2.738000000     0.418000000    -5.355000000
H     2.716000000    -0.456000000    -6.591000000
O     0.806000000    -1.613000000     4.913000000
H     0.816000000    -2.129000000     4.107000000
H     1.334000000    -0.841000000     4.710000000
O    -2.741000000     2.169000000    -2.577000000
H    -3.033000000     2.442000000    -1.708000000
H    -1.871000000     2.557000000    -2.670000000
O     5.806000000     3.885000000    -0.355000000
H     6.697000000     4.208000000    -0.222000000
H     5.249000000     4.528000000     0.083000000
O    -2.056000000    -0.979000000     3.684000000
H    -1.981000000    -1.081000000     4.632000000
H    -1.246000000    -1.353000000     3.337000000
O    -0.245000000    -1.837000000     7.556000000
H     0.097000000    -2.693000000     7.817000000
H    -0.101000000    -1.799000000     6.611000000
O    -2.374000000     6.514000000    -2.160000000
H    -2.566000000     7.425000000    -1.936000000
H    -3.229000000     6.133000000    -2.363000000
O     3.211000000     7.040000000    -1.581000000
H     2.884000000     7.891000000    -1.872000000
H     3.529000000     6.619000000    -2.380000000
O     2.221000000    -4.616000000     3.247000000
H     1.787000000    -5.452000000     3.417000000
H     1.619000000    -4.146000000     2.670000000
O     2.123000000     3.520000000    -5.003000000
H     2.512000000     4.372000000    -4.804000000
H     1.842000000     3.593000000    -5.915000000
O    -2.768000000    -0.169000000    -4.018000000
H    -2.596000000     0.620000000    -3.503000000
H    -1.929000000    -0.373000000    -4.431000000
O     1.467000000     5.197000000    -0.813000000
H     2.022000000     5.935000000    -1.064000000
H     1.913000000     4.807000000    -0.061000000
O     3.411000000    -3.275000000     5.240000000
H     2.703000000    -3.480000000     5.850000000
H     3.248000000    -3.841000000     4.485000000
O    -1.324000000    -7.490000000    -1.539000000
H    -2.209000000    -7.853000000    -1.491000000
H    -1.050000000    -7.647000000    -2.442000000
O    -4.910000000    -2.440000000     2.797000000
H    -4.286000000    -3.153000000     2.660000000
H    -4.379000000    -1.719000000     3.136000000
O     1.039000000    -6.911000000     0.807000000
H     0.373000000    -6.763000000     0.136000000
H     0.560000000    -7.301000000     1.538000000
O    -0.657000000     4.041000000    -2.156000000
H    -1.204000000     4.826000000    -2.137000000
H     0.148000000     4.299000000    -1.707000000
O    -2.808000000    -4.489000000    -1.263000000
H    -2.569000000    -5.409000000    -1.155000000
H    -1.987000000    -4.012000000    -1.143000000
O    -5.188000000    -3.144000000    -1.814000000
H    -4.822000000    -2.272000000    -1.963000000
H    -4.467000000    -3.645000000    -1.432000000
O    -2.968000000    -4.610000000    -4.908000000
H    -2.932000000    -5.269000000    -5.601000000
H    -2.097000000    -4.630000000    -4.513000000
O     4.017000000     2.597000000    -3.016000000
H     3.504000000     1.959000000    -3.512000000
H     3.572000000     2.656000000    -2.171000000
O    -1.024000000     7.359000000     1.498000000
H    -1.550000000     7.519000000     0.714000000
H    -0.537000000     6.559000000     1.301000000
O     0.395000000     2.355000000     5.451000000
H    -0.006000000     2.903000000     4.776000000
H     0.035000000     2.687000000     6.273000000
O     2.590000000    -1.395000000    -1.273000000
H     2.759000000    -1.895000000    -0.474000000
H     1.896000000    -0.781000000    -1.029000000
O    -3.243000000    -4.213000000     1.829000000
H    -3.833000000    -4.630000000     1.201000000
H    -2.483000000    -3.954000000     1.308000000
O    -0.665000000    -4.948000000    -3.765000000
H    -0.514000000    -5.330000000    -2.901000000
H     0.120000000    -4.426000000    -3.936000000
O     0.432000000    -0.751000000    -4.305000000
H     0.036000000     0.023000000    -3.902000000
H     1.012000000    -0.399000000    -4.980000000
O     2.418000000     0.855000000     4.662000000
H     1.695000000     1.402000000     4.968000000
H     2.787000000     1.339000000     3.923000000
O    -2.720000000    -7.032000000     3.394000000
H    -2.025000000    -6.379000000     3.467000000
H    -3.256000000    -6.731000000     2.660000000
