158
-3037.16774
C     0.480000000    -0.078000000     1.346000000
H     0.783000000    -0.040000000     2.389000000
C     0.251000000     1.082000000     0.652000000
H     0.462000000     2.025000000     1.150000000
C    -0.232000000     1.048000000    -0.652000000
H    -0.417000000     1.988000000    -1.246000000
C    -0.459000000    -0.238000000    -1.292000000
H    -0.674000000    -0.404000000    -2.344000000
C    -0.238000000    -1.399000000    -0.573000000
H    -0.453000000    -2.365000000    -1.025000000
C     0.254000000    -1.336000000     0.765000000
C     0.535000000    -2.642000000     1.517000000
O     0.799000000    -2.599000000     2.703000000
O     0.643000000    -3.722000000     0.976000000
O    -2.035000000     6.324000000    -0.702000000
H    -2.064000000     6.160000000     0.241000000
H    -2.953000000     6.340000000    -0.971000000
O    -0.097000000     5.931000000     1.718000000
H    -0.342000000     6.783000000     2.078000000
H     0.515000000     5.567000000     2.358000000
O     3.007000000    -3.547000000     7.073000000
H     2.775000000    -3.486000000     6.147000000
H     3.839000000    -4.019000000     7.081000000
O    -4.015000000    -5.748000000     2.534000000
H    -3.692000000    -6.569000000     2.907000000
H    -3.269000000    -5.397000000     2.048000000
O     4.999000000    -1.039000000     1.459000000
H     4.706000000    -0.748000000     2.322000000
H     4.282000000    -1.584000000     1.134000000
O     1.386000000     1.526000000     4.559000000
H     1.752000000     2.411000000     4.564000000
H     0.510000000     1.631000000     4.190000000
O    -3.376000000    -0.933000000    -0.715000000
H    -3.814000000    -0.452000000    -1.417000000
H    -3.253000000    -1.814000000    -1.068000000
O    -2.632000000    -2.032000000     2.460000000
H    -2.534000000    -1.840000000     1.528000000
H    -2.590000000    -2.987000000     2.513000000
O    -3.683000000    -1.836000000    -4.043000000
H    -3.463000000    -2.579000000    -3.481000000
H    -4.103000000    -2.230000000    -4.808000000
O     1.082000000    -4.464000000    -1.570000000
H     1.954000000    -4.727000000    -1.276000000
H     0.792000000    -3.826000000    -0.918000000
O    -1.260000000     4.550000000    -3.475000000
H    -1.604000000     5.405000000    -3.218000000
H    -2.018000000     3.967000000    -3.443000000
O     3.009000000    -0.787000000    -2.221000000
H     2.704000000     0.097000000    -2.018000000
H     3.925000000    -0.794000000    -1.943000000
O     5.278000000    -4.566000000    -1.566000000
H     4.814000000    -4.612000000    -2.401000000
H     4.629000000    -4.835000000    -0.916000000
O     3.521000000    -3.354000000     1.233000000
H     2.570000000    -3.368000000     1.125000000
H     3.795000000    -4.255000000     1.060000000
O     0.057000000    -0.051000000     7.162000000
H     0.441000000    -0.700000000     7.751000000
H     0.068000000    -0.473000000     6.302000000
O    -2.959000000    -0.147000000     4.357000000
H    -2.953000000    -0.973000000     3.873000000
H    -3.141000000     0.518000000     3.693000000
O     3.663000000     3.648000000     0.985000000
H     4.120000000     2.832000000     0.785000000
H     4.318000000     4.331000000     0.844000000
O     2.746000000     4.797000000    -4.849000000
H     2.788000000     4.035000000    -4.271000000
H     1.862000000     5.143000000    -4.727000000
O     1.262000000     7.375000000    -0.626000000
H     0.598000000     7.505000000     0.051000000
H     1.195000000     6.448000000    -0.854000000
O    -0.483000000    -1.556000000     4.918000000
H    -1.059000000    -0.941000000     4.465000000
H    -0.113000000    -2.096000000     4.220000000
O     2.788000000    -3.418000000     4.325000000
H     2.079000000    -2.967000000     3.865000000
H     3.463000000    -3.545000000     3.659000000
O     3.454000000    -0.330000000     4.077000000
H     2.669000000     0.178000000     4.283000000
H     3.341000000    -1.150000000     4.556000000
O    -4.495000000     0.547000000    -3.462000000
H    -4.110000000    -0.146000000    -3.998000000
H    -5.428000000     0.525000000    -3.677000000
O     1.201000000    -2.929000000    -3.606000000
H     1.913000000    -2.388000000    -3.264000000
H     1.027000000    -3.563000000    -2.910000000
O     1.208000000     0.922000000    -6.346000000
H     0.934000000     1.457000000    -5.601000000
H     0.848000000     0.054000000    -6.162000000
O    -4.283000000     6.337000000     1.238000000
H    -4.608000000     6.336000000     0.338000000
H    -4.269000000     5.413000000     1.489000000
O     1.835000000     4.514000000     2.903000000
H     2.474000000     4.076000000     2.340000000
H     2.161000000     4.371000000     3.791000000
O     0.452000000    -7.140000000     0.384000000
H     0.267000000    -6.626000000    -0.402000000
H    -0.254000000    -7.786000000     0.419000000
O     1.265000000     4.679000000    -0.382000000
H     2.164000000     4.742000000    -0.061000000
H     0.725000000     4.936000000     0.366000000
O    -2.699000000     3.160000000    -6.058000000
H    -1.967000000     3.712000000    -5.782000000
H    -3.299000000     3.167000000    -5.313000000
O     2.455000000     2.515000000    -1.771000000
H     1.637000000     2.807000000    -1.370000000
H     3.140000000     2.859000000    -1.197000000
O    -2.309000000     0.554000000    -6.499000000
H    -1.889000000     0.074000000    -5.785000000
H    -2.332000000     1.462000000    -6.197000000
O    -3.296000000    -4.571000000    -4.050000000
H    -3.561000000    -4.280000000    -4.923000000
H    -3.038000000    -5.485000000    -4.170000000
O     0.653000000     2.471000000    -4.104000000
H    -0.180000000     2.823000000    -3.790000000
H     1.076000000     2.122000000    -3.320000000
O     5.718000000     1.389000000     4.118000000
H     5.832000000     1.711000000     5.012000000
H     5.040000000     0.717000000     4.189000000
O    -1.254000000    -5.541000000     4.323000000
H    -1.120000000    -5.078000000     5.150000000
H    -0.478000000    -5.333000000     3.803000000
O    -3.153000000    -3.622000000    -1.483000000
H    -3.109000000    -3.975000000    -2.372000000
H    -4.043000000    -3.816000000    -1.192000000
O    -4.708000000     6.291000000    -1.465000000
H    -4.871000000     5.433000000    -1.858000000
H    -5.113000000     6.913000000    -2.070000000
O    -4.291000000     3.553000000     1.469000000
H    -3.752000000     2.791000000     1.252000000
H    -4.971000000     3.208000000     2.047000000
O     3.537000000    -5.951000000     0.272000000
H     2.792000000    -6.487000000     0.003000000
H     4.034000000    -6.513000000     0.867000000
O     1.705000000    -5.968000000     2.799000000
H     1.684000000    -5.073000000     2.459000000
H     1.340000000    -6.501000000     2.093000000
O    -2.799000000     1.229000000     1.282000000
H    -3.455000000     0.648000000     0.897000000
H    -1.965000000     0.909000000     0.939000000
O    -0.301000000    -0.971000000    -5.071000000
H    -0.152000000    -1.309000000    -4.188000000
H    -0.341000000    -1.753000000    -5.623000000
O    -3.535000000     3.013000000    -3.259000000
H    -4.206000000     3.476000000    -2.757000000
H    -3.772000000     2.089000000    -3.179000000
O     1.170000000    -4.427000000    -5.688000000
H     1.356000000    -4.059000000    -4.824000000
H     1.312000000    -3.700000000    -6.294000000
O    -1.901000000    -4.616000000     1.170000000
H    -0.970000000    -4.652000000     1.389000000
H    -1.919000000    -4.441000000     0.229000000
O    -1.306000000    -3.792000000     6.611000000
H    -0.967000000    -3.057000000     6.100000000
H    -1.724000000    -3.384000000     7.369000000
O    -1.558000000     3.187000000     3.404000000
H    -2.258000000     2.875000000     2.831000000
H    -1.148000000     3.901000000     2.916000000
