158
-3026.84963
C     0.958000000    -0.050000000     1.165000000
H     1.692000000     0.019000000     1.963000000
C     0.708000000     1.051000000     0.328000000
H     1.077000000     2.050000000     0.546000000
C    -0.152000000     0.996000000    -0.720000000
H    -0.367000000     1.856000000    -1.385000000
C    -0.824000000    -0.257000000    -0.924000000
H    -1.443000000    -0.342000000    -1.814000000
C    -0.541000000    -1.391000000    -0.160000000
H    -1.122000000    -2.260000000    -0.460000000
C     0.340000000    -1.293000000     0.917000000
C     0.541000000    -2.563000000     1.675000000
O     1.138000000    -2.506000000     2.711000000
O     0.097000000    -3.632000000     1.248000000
O     3.531000000     0.994000000    -3.959000000
H     3.749000000     0.444000000    -3.207000000
H     4.378000000     1.229000000    -4.337000000
O     6.044000000    -0.193000000    -1.186000000
H     5.145000000    -0.442000000    -0.971000000
H     6.427000000     0.067000000    -0.348000000
O     3.266000000     2.665000000     5.707000000
H     2.327000000     2.791000000     5.571000000
H     3.591000000     2.360000000     4.860000000
O    -0.177000000     4.347000000     2.666000000
H    -0.722000000     3.752000000     2.152000000
H     0.432000000     4.724000000     2.031000000
O     3.693000000     3.771000000    -0.084000000
H     4.256000000     4.534000000    -0.208000000
H     4.033000000     3.348000000     0.705000000
O    -3.909000000     0.232000000     0.900000000
H    -4.690000000    -0.315000000     0.979000000
H    -3.994000000     0.648000000     0.042000000
O    -3.607000000     0.323000000    -3.398000000
H    -4.205000000     0.014000000    -4.079000000
H    -3.010000000    -0.411000000    -3.252000000
O     1.922000000    -4.916000000    -0.649000000
H     2.629000000    -4.697000000    -0.042000000
H     1.130000000    -4.592000000    -0.221000000
O    -1.645000000     0.661000000     2.327000000
H    -2.488000000     0.431000000     1.935000000
H    -1.001000000     0.450000000     1.651000000
O    -2.119000000     3.106000000     1.009000000
H    -2.650000000     2.648000000     0.358000000
H    -1.752000000     2.410000000     1.554000000
O     4.647000000    -4.250000000     0.798000000
H     4.901000000    -4.532000000    -0.081000000
H     4.621000000    -5.059000000     1.310000000
O     0.733000000     3.237000000    -4.992000000
H    -0.193000000     3.435000000    -5.133000000
H     1.179000000     4.075000000    -5.118000000
O     4.791000000    -1.490000000     3.445000000
H     5.700000000    -1.671000000     3.683000000
H     4.382000000    -2.353000000     3.387000000
O    -1.519000000    -4.844000000     3.276000000
H    -0.879000000    -5.525000000     3.485000000
H    -1.012000000    -4.171000000     2.824000000
O    -0.333000000    -2.884000000    -4.004000000
H    -0.082000000    -2.053000000    -4.407000000
H     0.498000000    -3.300000000    -3.775000000
O     4.025000000    -1.601000000     0.872000000
H     4.430000000    -1.265000000     1.672000000
H     4.158000000    -2.548000000     0.916000000
O     4.035000000     1.182000000     3.170000000
H     4.394000000     0.296000000     3.129000000
H     4.526000000     1.671000000     2.511000000
O     0.647000000     0.509000000    -4.373000000
H     1.513000000     0.142000000    -4.197000000
H     0.805000000     1.443000000    -4.509000000
O     0.669000000    -1.403000000     4.970000000
H     0.797000000    -1.870000000     4.145000000
H     1.406000000    -0.794000000     5.018000000
O    -4.688000000     4.836000000    -2.074000000
H    -4.922000000     5.480000000    -1.406000000
H    -4.305000000     5.354000000    -2.782000000
O     4.684000000     3.228000000    -2.660000000
H     4.313000000     3.452000000    -1.807000000
H     3.959000000     2.823000000    -3.137000000
O     2.463000000    -7.947000000    -0.694000000
H     2.473000000    -7.478000000    -1.529000000
H     1.648000000    -7.671000000    -0.275000000
O    -2.114000000    -1.003000000     5.196000000
H    -2.373000000    -0.100000000     5.012000000
H    -1.161000000    -1.002000000     5.107000000
O     0.054000000    -2.010000000     7.520000000
H     0.507000000    -2.833000000     7.704000000
H     0.155000000    -1.887000000     6.576000000
O    -1.632000000     5.059000000    -5.312000000
H    -1.995000000     4.287000000    -4.878000000
H    -1.507000000     5.694000000    -4.607000000
O    -4.882000000     3.660000000     1.274000000
H    -3.932000000     3.639000000     1.395000000
H    -5.217000000     3.018000000     1.899000000
O     3.033000000    -3.750000000     4.052000000
H     2.949000000    -4.595000000     3.611000000
H     2.313000000    -3.224000000     3.702000000
O    -3.587000000     2.096000000    -1.228000000
H    -3.938000000     2.964000000    -1.423000000
H    -3.540000000     1.659000000    -2.078000000
O     1.473000000     5.432000000     0.537000000
H     1.654000000     6.185000000    -0.025000000
H     2.182000000     4.817000000     0.350000000
O     2.053000000    -7.790000000     3.991000000
H     1.868000000    -7.085000000     3.369000000
H     1.789000000    -7.435000000     4.840000000
O     3.969000000    -2.816000000     6.478000000
H     3.412000000    -3.055000000     7.219000000
H     3.507000000    -3.153000000     5.711000000
O    -0.871000000    -6.087000000    -1.240000000
H    -1.268000000    -6.644000000    -1.910000000
H    -0.039000000    -5.808000000    -1.623000000
O     0.029000000    -7.988000000     0.583000000
H    -0.295000000    -7.501000000    -0.175000000
H    -0.762000000    -8.247000000     1.056000000
O    -0.429000000     6.461000000    -2.246000000
H    -0.253000000     5.586000000    -1.901000000
H     0.259000000     7.010000000    -1.868000000
O    -2.334000000    -4.241000000     0.247000000
H    -2.073000000    -4.968000000    -0.318000000
H    -1.554000000    -4.050000000     0.767000000
O    -4.804000000    -2.399000000    -0.505000000
H    -4.050000000    -2.444000000    -1.091000000
H    -4.514000000    -2.840000000     0.294000000
O    -2.491000000    -2.837000000    -2.370000000
H    -1.622000000    -2.927000000    -2.761000000
H    -2.451000000    -3.369000000    -1.575000000
O    -1.510000000     6.976000000     2.789000000
H    -1.583000000     7.268000000     1.881000000
H    -1.258000000     6.055000000     2.725000000
O     1.262000000    -5.911000000     2.309000000
H     1.226000000    -5.032000000     1.931000000
H     0.790000000    -6.461000000     1.684000000
O    -6.674000000     0.749000000    -1.145000000
H    -7.066000000     0.699000000    -2.016000000
H    -5.742000000     0.588000000    -1.292000000
O    -1.772000000     1.880000000     4.743000000
H    -1.722000000     1.459000000     3.884000000
H    -0.881000000     2.183000000     4.913000000
O     3.036000000     0.123000000    -1.375000000
H     3.113000000    -0.635000000    -0.795000000
H     2.107000000     0.156000000    -1.603000000
O    -4.198000000    -3.347000000     2.365000000
H    -4.823000000    -4.016000000     2.085000000
H    -3.340000000    -3.736000000     2.196000000
O     1.709000000    -4.388000000    -3.234000000
H     1.900000000    -4.421000000    -2.297000000
H     2.450000000    -3.914000000    -3.613000000
O    -1.851000000     2.375000000    -4.258000000
H    -1.033000000     1.879000000    -4.292000000
H    -2.537000000     1.714000000    -4.355000000
O     3.016000000    -0.111000000     5.534000000
H     3.382000000     0.198000000     4.705000000
H     3.450000000    -0.950000000     5.689000000
O     0.822000000     3.342000000     4.929000000
H     1.013000000     3.714000000     4.069000000
H     0.296000000     4.010000000     5.368000000
O    -3.720000000    -5.613000000     4.381000000
H    -2.806000000    -5.424000000     4.168000000
H    -4.128000000    -5.804000000     3.536000000
