158
-3014.66404
C    -1.298000000    -0.134000000    -0.550000000
H    -2.351000000    -0.314000000    -0.751000000
C    -1.017000000     0.023000000     0.781000000
H    -1.832000000    -0.014000000     1.499000000
C     0.268000000     0.147000000     1.202000000
H     0.587000000     0.350000000     2.217000000
C     1.326000000     0.073000000     0.257000000
H     2.342000000     0.183000000     0.628000000
C     0.974000000    -0.108000000    -1.128000000
H     1.721000000    -0.088000000    -1.918000000
C    -0.342000000    -0.136000000    -1.564000000
C    -0.697000000    -0.302000000    -3.005000000
O     0.294000000    -0.542000000    -3.720000000
O    -1.769000000     0.038000000    -3.454000000
O    -2.413000000    -4.134000000    -2.130000000
H    -2.979000000    -3.527000000    -2.607000000
H    -1.701000000    -4.327000000    -2.740000000
O    -1.323000000     3.548000000    -1.401000000
H    -1.201000000     4.454000000    -1.117000000
H    -0.823000000     3.482000000    -2.215000000
O     0.209000000    -2.774000000    -8.268000000
H     1.080000000    -2.660000000    -8.649000000
H     0.326000000    -2.574000000    -7.339000000
O     6.468000000     1.035000000     4.828000000
H     6.783000000     0.179000000     4.538000000
H     5.557000000     1.066000000     4.535000000
O     3.624000000     2.363000000    -2.185000000
H     2.920000000     2.711000000    -1.638000000
H     4.398000000     2.863000000    -1.927000000
O    -1.300000000     1.387000000     8.321000000
H    -1.023000000     2.019000000     8.984000000
H    -0.982000000     1.753000000     7.495000000
O    -0.276000000    -4.219000000    -3.903000000
H    -0.631000000    -4.321000000    -4.787000000
H     0.294000000    -4.978000000    -3.785000000
O    -4.328000000     2.190000000     0.923000000
H    -4.940000000     1.507000000     1.200000000
H    -3.848000000     2.418000000     1.719000000
O     5.142000000     2.745000000     1.552000000
H     6.019000000     2.608000000     1.909000000
H     5.266000000     2.742000000     0.603000000
O     0.053000000     1.838000000     4.468000000
H     0.246000000     2.497000000     3.802000000
H    -0.170000000     2.344000000     5.249000000
O    -5.550000000    -0.122000000    -4.551000000
H    -5.279000000    -0.341000000    -3.659000000
H    -4.879000000     0.484000000    -4.863000000
O    -6.396000000     0.308000000     2.013000000
H    -5.757000000    -0.130000000     2.576000000
H    -6.935000000    -0.402000000     1.665000000
O    -2.090000000    -2.343000000     2.927000000
H    -1.726000000    -2.312000000     2.042000000
H    -3.024000000    -2.170000000     2.808000000
O     3.396000000     3.726000000     4.696000000
H     3.248000000     2.983000000     4.111000000
H     4.024000000     3.402000000     5.341000000
O    -3.114000000     1.904000000    -2.319000000
H    -2.426000000     1.360000000    -2.701000000
H    -2.652000000     2.486000000    -1.715000000
O     1.241000000    -2.864000000     0.970000000
H     0.646000000    -2.118000000     0.896000000
H     1.701000000    -2.887000000     0.131000000
O     0.641000000     2.192000000    -7.780000000
H     0.308000000     2.104000000    -6.887000000
H     0.125000000     1.568000000    -8.291000000
O    -5.731000000    -1.889000000    -0.625000000
H    -5.697000000    -1.040000000    -1.066000000
H    -6.633000000    -2.185000000    -0.744000000
O     5.099000000    -1.560000000     1.791000000
H     5.233000000    -2.506000000     1.732000000
H     5.271000000    -1.238000000     0.906000000
O    -5.031000000     3.953000000    -3.933000000
H    -4.504000000     3.454000000    -3.308000000
H    -4.783000000     3.603000000    -4.789000000
O     0.868000000     4.839000000     4.625000000
H     1.780000000     4.550000000     4.671000000
H     0.790000000     5.251000000     3.765000000
O     1.514000000    -3.774000000    -1.630000000
H     1.752000000    -4.675000000    -1.848000000
H     0.739000000    -3.595000000    -2.163000000
O    -4.949000000    -2.027000000    -6.160000000
H    -5.102000000    -1.480000000    -5.390000000
H    -5.825000000    -2.213000000    -6.499000000
O    -0.186000000    -0.839000000     5.107000000
H     0.127000000     0.038000000     4.884000000
H    -0.819000000    -1.049000000     4.421000000
O     4.806000000     0.001000000    -3.212000000
H     4.344000000     0.776000000    -2.892000000
H     5.694000000     0.310000000    -3.393000000
O    -0.222000000    -3.957000000     3.990000000
H     0.633000000    -3.656000000     3.683000000
H    -0.836000000    -3.294000000     3.674000000
O    -3.824000000    -1.918000000    -2.963000000
H    -3.161000000    -1.229000000    -3.000000000
H    -4.326000000    -1.724000000    -2.171000000
O     3.485000000     1.084000000     3.011000000
H     3.941000000     1.766000000     2.517000000
H     3.839000000     0.264000000     2.669000000
O    -5.476000000     0.542000000    -1.706000000
H    -4.895000000     1.301000000    -1.657000000
H    -6.327000000     0.907000000    -1.950000000
O    -5.531000000     3.720000000    -0.889000000
H    -5.336000000     4.568000000    -0.490000000
H    -5.067000000     3.086000000    -0.343000000
O    -3.654000000    -3.906000000     0.413000000
H    -3.342000000    -4.046000000    -0.481000000
H    -4.142000000    -3.084000000     0.371000000
O     2.163000000     0.470000000    -5.283000000
H     1.630000000     0.308000000    -4.505000000
H     1.877000000    -0.193000000    -5.911000000
O     4.624000000    -1.169000000    -5.664000000
H     4.407000000    -0.687000000    -4.866000000
H     4.461000000    -2.086000000    -5.442000000
O    -3.631000000     2.371000000     3.629000000
H    -2.883000000     2.961000000     3.533000000
H    -4.278000000     2.882000000     4.116000000
O    -0.438000000     3.068000000     1.340000000
H     0.201000000     2.356000000     1.338000000
H    -1.024000000     2.867000000     0.609000000
O     0.435000000    -3.199000000     6.560000000
H     0.234000000    -3.883000000     5.922000000
H     0.311000000    -2.380000000     6.080000000
O     5.008000000    -1.937000000    -1.139000000
H     4.409000000    -2.655000000    -1.346000000
H     5.078000000    -1.440000000    -1.953000000
O     0.092000000     3.208000000     7.002000000
H     0.761000000     3.292000000     7.681000000
H     0.306000000     3.893000000     6.368000000
O    -1.089000000    -0.440000000    -6.295000000
H    -0.289000000    -0.966000000    -6.310000000
H    -1.319000000    -0.381000000    -5.368000000
O     3.716000000     2.572000000    -4.880000000
H     3.910000000     2.642000000    -3.946000000
H     3.079000000     1.859000000    -4.940000000
O     2.735000000    -0.895000000     4.622000000
H     1.843000000    -0.953000000     4.965000000
H     2.735000000    -0.099000000     4.090000000
O     1.726000000     4.167000000    -0.532000000
H     2.557000000     4.537000000    -0.234000000
H     1.177000000     4.151000000     0.252000000
O     3.053000000    -3.602000000    -3.910000000
H     3.641000000    -3.971000000    -3.251000000
H     2.364000000    -3.174000000    -3.403000000
O     0.947000000    -2.288000000    -5.647000000
H     0.559000000    -1.763000000    -4.946000000
H     1.148000000    -3.128000000    -5.235000000
O     2.535000000    -3.454000000     3.292000000
H     2.456000000    -3.301000000     2.350000000
H     2.477000000    -2.582000000     3.682000000
O    -1.933000000     4.432000000     3.340000000
H    -1.544000000     3.825000000     2.711000000
H    -2.137000000     5.213000000     2.826000000
O    -3.114000000     1.707000000    -5.216000000
H    -2.554000000     1.506000000    -4.466000000
H    -2.683000000     1.282000000    -5.957000000
O    -0.232000000     2.692000000    -5.195000000
H    -0.191000000     1.870000000    -4.706000000
H     0.012000000     3.363000000    -4.558000000
