158
-3025.34101
C     0.255000000    -0.356000000     1.402000000
H     0.580000000    -0.504000000     2.428000000
C     0.492000000     0.869000000     0.867000000
H     1.002000000     1.611000000     1.477000000
C     0.257000000     1.076000000    -0.490000000
H     0.570000000     2.006000000    -0.986000000
C    -0.292000000     0.069000000    -1.278000000
H    -0.484000000     0.203000000    -2.339000000
C    -0.653000000    -1.116000000    -0.703000000
H    -1.025000000    -1.899000000    -1.359000000
C    -0.392000000    -1.385000000     0.674000000
C    -0.665000000    -2.666000000     1.269000000
O    -0.672000000    -2.721000000     2.509000000
O    -0.922000000    -3.672000000     0.614000000
O     4.225000000     1.979000000    -2.178000000
H     3.877000000     1.088000000    -2.192000000
H     5.152000000     1.871000000    -1.964000000
O    -2.975000000     2.499000000    -0.246000000
H    -2.863000000     2.498000000     0.705000000
H    -2.198000000     2.949000000    -0.578000000
O     1.966000000    -2.201000000    -2.729000000
H     1.629000000    -1.780000000    -3.520000000
H     2.329000000    -1.482000000    -2.212000000
O    -4.287000000     4.927000000     0.023000000
H    -3.467000000     5.419000000    -0.032000000
H    -4.062000000     4.051000000    -0.289000000
O     2.273000000     7.068000000    -1.056000000
H     3.184000000     7.362000000    -1.059000000
H     1.997000000     7.155000000    -0.143000000
O    -3.269000000     0.363000000    -1.846000000
H    -2.323000000     0.506000000    -1.809000000
H    -3.635000000     1.034000000    -1.270000000
O    -5.313000000    -0.046000000    -0.012000000
H    -4.874000000    -0.001000000    -0.862000000
H    -4.708000000     0.382000000     0.593000000
O    -2.820000000     2.991000000    -3.710000000
H    -3.093000000     2.300000000    -3.107000000
H    -2.472000000     2.522000000    -4.469000000
O    -2.012000000     5.997000000    -3.369000000
H    -1.692000000     6.022000000    -4.271000000
H    -2.091000000     5.064000000    -3.169000000
O    -4.135000000    -1.747000000    -4.872000000
H    -3.342000000    -2.139000000    -4.506000000
H    -4.217000000    -0.907000000    -4.421000000
O     1.187000000    -4.386000000    -1.037000000
H     1.531000000    -3.617000000    -1.492000000
H     0.327000000    -4.111000000    -0.719000000
O    -2.553000000     2.977000000     2.465000000
H    -2.815000000     3.530000000     3.202000000
H    -1.666000000     2.692000000     2.683000000
O     2.164000000     2.213000000    -3.768000000
H     1.530000000     2.856000000    -3.450000000
H     2.933000000     2.339000000    -3.212000000
O     2.994000000    -4.068000000     1.040000000
H     2.283000000    -4.121000000     0.402000000
H     2.569000000    -4.211000000     1.886000000
O     2.716000000     0.287000000     3.983000000
H     2.620000000     1.184000000     3.662000000
H     3.638000000     0.076000000     3.833000000
O    -2.458000000    -1.156000000     3.740000000
H    -1.790000000    -1.676000000     3.294000000
H    -3.134000000    -1.789000000     3.979000000
O    -0.600000000    -3.093000000     6.594000000
H    -1.116000000    -2.338000000     6.875000000
H    -0.100000000    -2.775000000     5.842000000
O    -0.197000000    -1.516000000    -6.931000000
H     0.431000000    -0.943000000    -6.490000000
H     0.240000000    -2.367000000    -6.966000000
O     3.834000000    -1.408000000     1.368000000
H     3.169000000    -1.081000000     1.974000000
H     3.547000000    -2.296000000     1.154000000
O    -3.735000000    -6.606000000     2.030000000
H    -4.428000000    -7.101000000     1.594000000
H    -2.924000000    -6.933000000     1.640000000
O     0.847000000    -1.724000000     4.692000000
H     0.577000000    -2.206000000     3.910000000
H     1.264000000    -0.932000000     4.352000000
O     0.019000000     2.861000000    -6.625000000
H    -0.344000000     3.717000000    -6.395000000
H     0.763000000     3.062000000    -7.192000000
O     5.073000000     5.266000000    -2.471000000
H     4.223000000     4.858000000    -2.639000000
H     5.663000000     4.858000000    -3.105000000
O    -0.542000000     0.862000000     5.080000000
H    -1.476000000     1.016000000     5.219000000
H    -0.442000000    -0.087000000     5.155000000
O     2.254000000    -1.438000000     7.276000000
H     3.142000000    -1.081000000     7.260000000
H     2.134000000    -1.819000000     6.406000000
O     0.360000000    -4.375000000    -4.023000000
H     1.184000000    -4.723000000    -4.364000000
H     0.548000000    -3.455000000    -3.836000000
O     1.542000000    -4.139000000     3.374000000
H     1.506000000    -4.176000000     4.330000000
H     0.630000000    -4.037000000     3.103000000
O    -1.262000000     1.001000000    -5.225000000
H    -0.821000000     1.658000000    -5.763000000
H    -0.550000000     0.531000000    -4.790000000
O     2.160000000     4.872000000    -2.346000000
H     2.178000000     5.611000000    -1.737000000
H     2.484000000     5.234000000    -3.171000000
O    -1.557000000    -6.555000000    -1.816000000
H    -1.902000000    -7.316000000    -1.349000000
H    -1.024000000    -6.927000000    -2.519000000
O     1.194000000     1.173000000     7.054000000
H     0.503000000     1.185000000     6.391000000
H     1.720000000     0.403000000     6.837000000
O    -3.723000000     0.562000000     2.091000000
H    -3.180000000     1.340000000     2.220000000
H    -3.257000000    -0.135000000     2.552000000
O    -0.474000000    -6.254000000     1.204000000
H    -0.512000000    -6.699000000     0.358000000
H    -0.634000000    -5.333000000     0.998000000
O    -0.719000000     4.322000000    -1.319000000
H    -0.078000000     4.145000000    -2.007000000
H    -0.350000000     5.058000000    -0.830000000
O    -2.825000000    -4.336000000    -0.967000000
H    -2.477000000    -5.179000000    -1.257000000
H    -2.212000000    -4.043000000    -0.292000000
O    -5.741000000    -4.110000000     0.094000000
H    -6.090000000    -4.518000000    -0.699000000
H    -4.823000000    -3.933000000    -0.112000000
O    -2.431000000    -3.806000000    -3.858000000
H    -1.558000000    -4.174000000    -3.720000000
H    -2.909000000    -4.014000000    -3.055000000
O     4.331000000     1.997000000    -5.832000000
H     4.424000000     1.060000000    -6.002000000
H     3.826000000     2.045000000    -5.020000000
O     0.058000000     3.453000000     3.532000000
H    -0.190000000     2.763000000     4.147000000
H    -0.172000000     4.267000000     3.979000000
O     0.582000000    -7.146000000     3.550000000
H     1.092000000    -6.344000000     3.664000000
H    -0.061000000    -6.927000000     2.876000000
O     3.970000000    -0.692000000    -1.605000000
H     4.579000000    -1.421000000    -1.723000000
H     3.971000000    -0.531000000    -0.661000000
O    -3.005000000    -3.920000000     2.898000000
H    -3.193000000    -4.572000000     2.223000000
H    -2.165000000    -3.541000000     2.638000000
O    -2.537000000    -1.239000000     7.053000000
H    -2.930000000    -1.157000000     6.183000000
H    -3.275000000    -1.432000000     7.631000000
O     1.469000000    -7.052000000    -1.419000000
H     1.213000000    -6.131000000    -1.456000000
H     0.774000000    -7.513000000    -1.889000000
O     1.593000000    -0.360000000    -4.764000000
H     1.555000000     0.530000000    -4.412000000
H     2.504000000    -0.470000000    -5.037000000
O     3.070000000     2.726000000     2.644000000
H     2.340000000     3.344000000     2.685000000
H     3.852000000     3.275000000     2.699000000
O    -5.619000000    -4.694000000     3.752000000
H    -6.159000000    -3.975000000     3.426000000
H    -4.734000000    -4.483000000     3.455000000
O    -1.788000000    -5.189000000     5.233000000
H    -1.580000000    -4.435000000     5.785000000
H    -2.223000000    -4.813000000     4.468000000
