158
-3003.63359
C     1.426000000    -0.340000000     0.577000000
H     2.465000000    -0.384000000     0.895000000
C     1.177000000     0.246000000    -0.711000000
H     1.955000000     0.712000000    -1.311000000
C    -0.176000000     0.502000000    -1.122000000
H    -0.325000000     1.221000000    -1.953000000
C    -1.187000000     0.031000000    -0.387000000
H    -2.195000000     0.246000000    -0.730000000
C    -0.972000000    -0.605000000     0.853000000
H    -1.814000000    -0.812000000     1.510000000
C     0.339000000    -0.900000000     1.335000000
C     0.459000000    -1.533000000     2.718000000
O     1.540000000    -1.992000000     3.084000000
O    -0.578000000    -1.653000000     3.384000000
O    -6.169000000     0.800000000    -2.008000000
H    -5.525000000     1.499000000    -1.892000000
H    -6.967000000     1.141000000    -1.604000000
O     4.056000000    -0.532000000     7.220000000
H     3.176000000    -0.344000000     6.894000000
H     3.912000000    -1.039000000     8.019000000
O    -5.587000000    -1.613000000     0.198000000
H    -5.768000000    -0.902000000     0.814000000
H    -5.854000000    -1.267000000    -0.653000000
O    -4.214000000     0.666000000     4.019000000
H    -3.451000000     0.192000000     4.349000000
H    -3.929000000     1.021000000     3.177000000
O    -1.238000000     2.281000000     3.167000000
H    -0.628000000     2.590000000     2.497000000
H    -2.072000000     2.187000000     2.707000000
O     3.132000000     2.686000000     1.860000000
H     3.796000000     2.754000000     1.175000000
H     3.477000000     3.210000000     2.582000000
O    -3.180000000    -2.879000000    -0.213000000
H    -3.991000000    -2.378000000    -0.289000000
H    -2.588000000    -2.475000000    -0.848000000
O    -0.575000000    -1.215000000    -7.210000000
H    -0.112000000    -0.409000000    -7.438000000
H    -1.088000000    -1.426000000    -7.991000000
O    -1.501000000     5.038000000     1.657000000
H    -0.795000000     4.407000000     1.518000000
H    -1.785000000     5.277000000     0.774000000
O    -2.804000000     5.508000000    -0.690000000
H    -3.599000000     5.442000000    -0.161000000
H    -3.113000000     5.781000000    -1.554000000
O     1.213000000    -1.679000000    -2.904000000
H     1.167000000    -0.911000000    -2.334000000
H     1.985000000    -2.157000000    -2.599000000
O    -0.333000000    -3.982000000     0.525000000
H    -0.898000000    -4.279000000     1.238000000
H    -0.870000000    -4.078000000    -0.261000000
O    -0.392000000    -2.808000000    -4.857000000
H    -0.410000000    -2.259000000    -5.641000000
H     0.254000000    -2.390000000    -4.288000000
O    -2.712000000     2.379000000    -3.576000000
H    -2.831000000     3.221000000    -4.015000000
H    -2.316000000     1.816000000    -4.242000000
O     5.558000000     2.870000000     0.631000000
H     5.883000000     1.976000000     0.742000000
H     6.343000000     3.416000000     0.669000000
O    -0.551000000    -4.571000000    -2.431000000
H     0.025000000    -5.055000000    -1.839000000
H    -0.002000000    -3.867000000    -2.777000000
O     3.916000000     1.311000000     4.324000000
H     3.589000000     1.422000000     3.431000000
H     3.963000000     0.363000000     4.446000000
O    -4.489000000    -2.673000000     7.046000000
H    -4.926000000    -3.498000000     7.258000000
H    -4.062000000    -2.838000000     6.205000000
O    -0.690000000    -3.566000000     5.099000000
H     0.111000000    -4.018000000     4.834000000
H    -0.793000000    -2.864000000     4.456000000
O     4.025000000    -1.444000000     3.954000000
H     4.485000000    -2.184000000     3.558000000
H     3.109000000    -1.572000000     3.707000000
O     4.518000000    -5.413000000     4.176000000
H     5.359000000    -5.071000000     3.873000000
H     4.475000000    -5.160000000     5.099000000
O    -0.061000000     6.188000000    -3.229000000
H    -0.053000000     5.474000000    -2.592000000
H     0.000000000     5.752000000    -4.079000000
O    -4.040000000     1.640000000    -7.138000000
H    -3.406000000     1.281000000    -6.517000000
H    -3.512000000     1.909000000    -7.890000000
O    -4.301000000    -4.362000000     4.499000000
H    -3.773000000    -4.033000000     3.772000000
H    -3.671000000    -4.793000000     5.077000000
O     0.699000000     1.890000000     5.654000000
H     0.617000000     1.903000000     4.701000000
H     0.821000000     2.808000000     5.897000000
O     1.874000000     7.309000000    -1.418000000
H     1.233000000     6.883000000    -1.987000000
H     2.397000000     7.850000000    -2.010000000
O     6.749000000     0.172000000     1.634000000
H     7.026000000    -0.739000000     1.731000000
H     6.443000000     0.424000000     2.505000000
O     0.697000000    -6.884000000     4.089000000
H     1.146000000    -6.043000000     4.166000000
H    -0.196000000    -6.656000000     3.828000000
O    -3.643000000     2.454000000    -1.039000000
H    -3.253000000     3.314000000    -0.883000000
H    -3.488000000     2.285000000    -1.969000000
O    -3.546000000     5.035000000    -4.581000000
H    -3.027000000     5.599000000    -5.154000000
H    -4.312000000     5.563000000    -4.355000000
O    -1.995000000    -0.205000000     4.935000000
H    -1.642000000     0.681000000     4.861000000
H    -1.406000000    -0.743000000     4.406000000
O     0.448000000     3.296000000     1.269000000
H     1.265000000     3.247000000     1.765000000
H     0.465000000     2.523000000     0.704000000
O     0.831000000     2.665000000    -4.468000000
H     0.564000000     3.400000000    -5.021000000
H     1.780000000     2.611000000    -4.583000000
O     4.058000000    -5.856000000     0.814000000
H     3.572000000    -6.338000000     1.484000000
H     3.504000000    -5.102000000     0.612000000
O     1.635000000    -4.397000000     4.263000000
H     2.576000000    -4.557000000     4.337000000
H     1.568000000    -3.586000000     3.760000000
O     4.344000000     0.430000000    -2.809000000
H     4.296000000    -0.464000000    -2.469000000
H     4.758000000     0.931000000    -2.107000000
O    -0.184000000     4.809000000    -5.879000000
H    -0.492000000     4.334000000    -6.651000000
H    -0.377000000     5.727000000    -6.071000000
O     1.467000000    -0.857000000     5.509000000
H     1.583000000     0.066000000     5.285000000
H     1.365000000    -1.298000000     4.665000000
O     5.886000000    -2.175000000     6.064000000
H     5.365000000    -1.421000000     6.341000000
H     5.719000000    -2.248000000     5.124000000
O    -1.400000000    -1.900000000     7.374000000
H    -1.802000000    -1.142000000     6.949000000
H    -1.351000000    -2.563000000     6.686000000
O    -0.637000000     3.675000000    -2.032000000
H    -0.172000000     3.300000000    -2.780000000
H    -1.248000000     2.989000000    -1.761000000
O    -2.612000000    -3.909000000     2.348000000
H    -3.033000000    -3.530000000     1.577000000
H    -2.072000000    -3.201000000     2.698000000
O    -3.440000000     1.746000000     1.532000000
H    -3.222000000     1.611000000     0.610000000
H    -4.203000000     2.323000000     1.515000000
O     2.485000000    -3.478000000     0.732000000
H     1.575000000    -3.618000000     0.469000000
H     2.424000000    -2.998000000     1.558000000
O     1.560000000    -3.100000000     7.481000000
H     0.773000000    -3.587000000     7.727000000
H     1.252000000    -2.450000000     6.849000000
O     4.476000000    -0.003000000    -5.879000000
H     4.958000000     0.240000000    -5.088000000
H     3.609000000     0.383000000    -5.758000000
O     3.706000000    -2.667000000    -1.982000000
H     4.623000000    -2.895000000    -2.135000000
H     3.578000000    -2.808000000    -1.044000000
O    -1.500000000     0.976000000    -5.424000000
H    -1.566000000     0.185000000    -5.958000000
H    -0.578000000     1.018000000    -5.171000000
