158
-3041.48757
C     0.261000000     1.157000000     0.845000000
H     0.528000000     2.094000000     1.328000000
C     0.474000000     1.108000000    -0.500000000
H     1.040000000     1.925000000    -0.940000000
C     0.143000000    -0.073000000    -1.249000000
H     0.287000000    -0.092000000    -2.276000000
C    -0.409000000    -1.140000000    -0.552000000
H    -0.576000000    -2.094000000    -1.047000000
C    -0.606000000    -1.069000000     0.838000000
H    -1.099000000    -1.871000000     1.382000000
C    -0.253000000     0.034000000     1.524000000
C    -0.436000000     0.224000000     3.021000000
O    -0.400000000     1.389000000     3.470000000
O    -0.634000000    -0.779000000     3.735000000
O    -2.715000000     3.289000000     0.014000000
H    -2.713000000     3.261000000     0.971000000
H    -1.809000000     3.493000000    -0.221000000
O    -1.692000000     4.484000000     7.454000000
H    -1.024000000     4.343000000     8.126000000
H    -1.574000000     3.756000000     6.844000000
O     6.551000000    -0.753000000    -4.418000000
H     6.888000000     0.125000000    -4.237000000
H     5.601000000    -0.664000000    -4.346000000
O     4.308000000    -1.602000000    -1.509000000
H     4.104000000    -1.158000000    -2.333000000
H     3.979000000    -1.011000000    -0.831000000
O    -1.285000000    -3.273000000    -6.843000000
H    -1.692000000    -3.674000000    -7.611000000
H    -1.187000000    -3.993000000    -6.220000000
O    -3.611000000    -0.198000000    -4.621000000
H    -2.890000000    -0.826000000    -4.658000000
H    -3.463000000     0.288000000    -3.809000000
O     1.308000000    -1.877000000    -6.841000000
H     0.455000000    -2.263000000    -7.038000000
H     1.777000000    -2.561000000    -6.364000000
O    -0.342000000    -5.988000000     4.396000000
H    -0.385000000    -5.078000000     4.101000000
H    -1.192000000    -6.358000000     4.157000000
O     2.825000000     0.955000000     6.899000000
H     2.034000000     0.456000000     6.692000000
H     2.850000000     1.648000000     6.239000000
O     3.385000000    -0.018000000     0.431000000
H     2.512000000    -0.234000000     0.757000000
H     3.821000000     0.402000000     1.172000000
O     2.868000000     2.717000000    -6.281000000
H     2.146000000     2.343000000    -5.777000000
H     3.519000000     2.016000000    -6.324000000
O    -1.167000000    -3.555000000     3.949000000
H    -2.114000000    -3.536000000     4.087000000
H    -0.926000000    -2.638000000     3.820000000
O     4.008000000     2.276000000    -2.537000000
H     4.472000000     2.407000000    -1.710000000
H     3.315000000     2.937000000    -2.530000000
O    -1.553000000     0.748000000     7.773000000
H    -2.354000000     0.414000000     7.371000000
H    -1.304000000     0.074000000     8.406000000
O    -0.306000000     4.628000000    -0.294000000
H    -0.363000000     4.877000000     0.629000000
H    -0.306000000     5.460000000    -0.767000000
O     4.090000000    -3.916000000    -0.103000000
H     4.060000000    -3.173000000    -0.706000000
H     4.274000000    -3.524000000     0.751000000
O     4.524000000    -2.907000000    -5.562000000
H     4.292000000    -2.355000000    -4.816000000
H     4.626000000    -3.783000000    -5.190000000
O    -2.774000000     2.974000000     2.719000000
H    -2.069000000     2.337000000     2.835000000
H    -3.416000000     2.746000000     3.392000000
O    -2.715000000    -4.510000000     6.111000000
H    -1.887000000    -4.077000000     6.318000000
H    -2.467000000    -5.408000000     5.892000000
O     2.048000000    -2.585000000     2.593000000
H     3.000000000    -2.499000000     2.544000000
H     1.873000000    -2.788000000     3.512000000
O     4.375000000     0.481000000    -6.585000000
H     4.065000000     0.119000000    -5.756000000
H     5.129000000    -0.062000000    -6.816000000
O    -4.009000000     0.399000000     6.208000000
H    -4.841000000    -0.072000000     6.154000000
H    -3.498000000     0.069000000     5.469000000
O    -3.013000000    -3.878000000     1.024000000
H    -3.255000000    -4.769000000     0.769000000
H    -3.317000000    -3.797000000     1.928000000
O     3.516000000     2.652000000     5.012000000
H     4.096000000     3.399000000     5.157000000
H     3.168000000     2.785000000     4.131000000
O     2.642000000     5.974000000    -0.033000000
H     1.913000000     5.630000000     0.483000000
H     3.424000000     5.629000000     0.398000000
O    -0.223000000     2.597000000    -7.697000000
H     0.660000000     2.955000000    -7.596000000
H    -0.415000000     2.194000000    -6.850000000
O    -1.108000000     2.448000000     5.705000000
H    -1.017000000     1.819000000     6.421000000
H    -0.978000000     1.928000000     4.912000000
O    -0.785000000    -5.323000000    -5.122000000
H    -0.518000000    -6.229000000    -4.967000000
H     0.030000000    -4.867000000    -5.331000000
O     1.844000000     3.956000000    -2.615000000
H     1.210000000     4.275000000    -1.973000000
H     1.870000000     4.638000000    -3.286000000
O    -2.294000000    -4.965000000    -2.959000000
H    -1.709000000    -4.933000000    -3.716000000
H    -2.972000000    -4.318000000    -3.152000000
O    -0.584000000    -6.371000000    -0.844000000
H    -1.206000000    -5.953000000    -1.439000000
H    -0.274000000    -5.660000000    -0.283000000
O    -4.856000000    -0.868000000     1.541000000
H    -4.462000000    -0.918000000     0.670000000
H    -5.583000000    -1.490000000     1.511000000
O     2.604000000     4.366000000     2.576000000
H     3.481000000     4.612000000     2.283000000
H     2.223000000     5.182000000     2.901000000
O     5.134000000     2.551000000    -0.248000000
H     5.468000000     3.339000000     0.181000000
H     4.672000000     2.078000000     0.444000000
O    -2.486000000     1.188000000    -2.261000000
H    -3.176000000     1.538000000    -1.697000000
H    -1.713000000     1.147000000    -1.697000000
O     1.378000000     1.347000000    -4.604000000
H     1.455000000     1.821000000    -3.776000000
H     0.437000000     1.321000000    -4.779000000
O    -4.109000000    -3.543000000     3.518000000
H    -4.264000000    -2.660000000     3.854000000
H    -4.835000000    -4.062000000     3.864000000
O    -3.198000000    -0.758000000     3.983000000
H    -2.257000000    -0.829000000     3.821000000
H    -3.580000000    -0.607000000     3.119000000
O     2.551000000    -2.247000000     5.305000000
H     3.418000000    -1.863000000     5.432000000
H     1.948000000    -1.604000000     5.680000000
O    -1.244000000     1.517000000    -5.302000000
H    -1.600000000     0.630000000    -5.365000000
H    -1.702000000     1.907000000    -4.558000000
O     3.831000000    -0.228000000    -3.960000000
H     4.184000000     0.539000000    -3.508000000
H     2.885000000    -0.085000000    -3.970000000
O     0.446000000    -4.688000000     1.240000000
H    -0.228000000    -4.694000000     1.919000000
H     0.962000000    -3.902000000     1.421000000
O    -3.682000000    -2.083000000    -1.375000000
H    -3.475000000    -2.567000000    -0.576000000
H    -2.934000000    -1.500000000    -1.503000000
O    -1.328000000     5.335000000     2.090000000
H    -2.040000000     4.713000000     2.236000000
H    -0.948000000     5.474000000     2.957000000
O     0.605000000     4.666000000     4.779000000
H     1.180000000     4.201000000     4.170000000
H     0.079000000     3.978000000     5.185000000
O     1.684000000    -4.200000000    -5.349000000
H     1.948000000    -4.967000000    -5.857000000
H     2.116000000    -4.312000000    -4.503000000
O    -1.192000000    -1.230000000    -5.099000000
H    -1.207000000    -1.926000000    -5.755000000
H    -0.292000000    -1.227000000    -4.773000000
O     0.569000000    -0.587000000     6.175000000
H    -0.092000000    -0.919000000     6.782000000
H     0.130000000    -0.575000000     5.325000000
