158
-3053.00738
C     0.030000000     1.190000000     0.973000000
H     0.329000000     2.039000000     1.583000000
C     0.259000000     1.256000000    -0.412000000
H     0.634000000     2.151000000    -0.903000000
C     0.085000000     0.077000000    -1.183000000
H     0.208000000     0.153000000    -2.256000000
C    -0.330000000    -1.120000000    -0.613000000
H    -0.442000000    -1.981000000    -1.268000000
C    -0.433000000    -1.200000000     0.762000000
H    -0.554000000    -2.180000000     1.217000000
C    -0.296000000    -0.074000000     1.560000000
C    -0.133000000    -0.232000000     3.050000000
O     0.188000000     0.688000000     3.764000000
O    -0.324000000    -1.335000000     3.534000000
O    -2.566000000     4.853000000    -1.935000000
H    -2.129000000     5.011000000    -1.098000000
H    -2.666000000     3.902000000    -1.977000000
O    -2.348000000     2.219000000    -2.259000000
H    -1.606000000     1.807000000    -1.816000000
H    -2.510000000     1.663000000    -3.022000000
O     3.328000000     1.958000000     2.110000000
H     3.276000000     2.740000000     2.660000000
H     2.837000000     2.187000000     1.321000000
O     4.767000000    -0.185000000     1.449000000
H     4.136000000     0.413000000     1.850000000
H     5.377000000    -0.398000000     2.156000000
O     4.602000000    -3.185000000    -2.553000000
H     4.034000000    -2.914000000    -1.831000000
H     4.405000000    -4.113000000    -2.676000000
O    -4.315000000     0.322000000     2.594000000
H    -5.071000000     0.838000000     2.876000000
H    -3.879000000     0.873000000     1.943000000
O     1.660000000    -3.302000000    -2.701000000
H     2.201000000    -2.528000000    -2.859000000
H     0.882000000    -3.164000000    -3.240000000
O    -3.621000000    -1.942000000    -4.384000000
H    -3.900000000    -2.672000000    -4.937000000
H    -4.322000000    -1.849000000    -3.739000000
O    -1.811000000    -4.966000000    -3.388000000
H    -1.288000000    -4.243000000    -3.734000000
H    -1.354000000    -5.233000000    -2.591000000
O    -3.547000000     1.225000000     6.656000000
H    -2.793000000     0.635000000     6.632000000
H    -3.424000000     1.738000000     7.455000000
O    -0.429000000    -3.861000000     6.325000000
H    -1.334000000    -3.580000000     6.461000000
H    -0.416000000    -4.202000000     5.431000000
O     2.574000000     0.769000000     5.033000000
H     1.739000000     0.872000000     4.577000000
H     3.117000000     1.486000000     4.705000000
O     3.377000000    -1.472000000    -0.259000000
H     2.624000000    -0.882000000    -0.286000000
H     3.996000000    -1.044000000     0.333000000
O     2.381000000     1.317000000    -6.715000000
H     2.042000000     2.005000000    -6.142000000
H     3.332000000     1.417000000    -6.671000000
O    -1.281000000    -4.288000000     3.721000000
H    -1.868000000    -3.540000000     3.618000000
H    -0.402000000    -3.914000000     3.654000000
O     0.063000000     3.249000000    -4.253000000
H    -0.648000000     2.608000000    -4.251000000
H    -0.364000000     4.079000000    -4.465000000
O    -3.089000000     2.023000000     0.839000000
H    -3.057000000     1.675000000    -0.052000000
H    -3.191000000     2.967000000     0.724000000
O     3.148000000    -3.270000000    -5.574000000
H     2.860000000    -2.432000000    -5.213000000
H     3.605000000    -3.698000000    -4.851000000
O    -1.657000000     2.685000000     3.070000000
H    -0.915000000     2.080000000     3.098000000
H    -2.165000000     2.405000000     2.309000000
O     2.732000000     3.639000000    -3.765000000
H     3.160000000     2.877000000    -3.375000000
H     1.813000000     3.385000000    -3.842000000
O     1.400000000    -5.024000000     2.365000000
H     2.134000000    -4.935000000     1.757000000
H     1.773000000    -4.824000000     3.223000000
O    -2.806000000    -2.136000000     6.694000000
H    -3.527000000    -1.649000000     7.092000000
H    -3.148000000    -2.420000000     5.846000000
O    -3.277000000    -4.670000000     0.712000000
H    -3.596000000    -4.754000000    -0.186000000
H    -3.404000000    -3.746000000     0.926000000
O     2.688000000     3.850000000     0.335000000
H     1.940000000     4.250000000    -0.109000000
H     3.390000000     4.496000000     0.250000000
O    -0.294000000    -0.125000000    -6.496000000
H    -0.061000000    -0.849000000    -7.077000000
H     0.445000000     0.481000000    -6.560000000
O    -0.709000000     0.275000000     6.129000000
H    -0.835000000    -0.670000000     6.038000000
H    -0.473000000     0.570000000     5.250000000
O     4.366000000     1.832000000    -2.401000000
H     4.135000000     1.946000000    -1.480000000
H     5.072000000     1.185000000    -2.394000000
O    -4.247000000    -4.849000000    -1.761000000
H    -3.574000000    -4.724000000    -2.430000000
H    -5.068000000    -4.635000000    -2.205000000
O    -3.791000000     3.283000000     4.701000000
H    -4.034000000     2.473000000     5.149000000
H    -3.360000000     2.992000000     3.897000000
O     1.099000000     6.317000000     1.935000000
H     1.729000000     5.608000000     1.803000000
H     1.104000000     6.469000000     2.880000000
O    -0.981000000     4.041000000     5.579000000
H    -1.159000000     3.373000000     4.917000000
H    -1.811000000     4.145000000     6.044000000
O    -3.902000000    -0.057000000    -1.224000000
H    -4.350000000     0.158000000    -2.042000000
H    -3.099000000    -0.500000000    -1.500000000
O     0.034000000    -5.325000000    -1.343000000
H     0.080000000    -5.272000000    -0.388000000
H     0.557000000    -4.584000000    -1.650000000
O    -2.712000000     1.362000000    -7.377000000
H    -1.969000000     0.837000000    -7.082000000
H    -3.451000000     1.043000000    -6.859000000
O    -2.961000000    -1.988000000     3.969000000
H    -2.125000000    -1.603000000     3.706000000
H    -3.621000000    -1.448000000     3.535000000
O     1.009000000     4.824000000    -1.607000000
H     0.678000000     5.690000000    -1.843000000
H     1.060000000     4.353000000    -2.439000000
O     1.576000000    -2.986000000     4.259000000
H     2.351000000    -2.425000000     4.233000000
H     0.846000000    -2.394000000     4.081000000
O    -2.266000000     0.394000000    -4.412000000
H    -2.866000000    -0.350000000    -4.457000000
H    -1.675000000     0.272000000    -5.155000000
O     2.790000000    -0.746000000    -3.973000000
H     3.542000000    -0.224000000    -3.694000000
H     2.211000000    -0.119000000    -4.406000000
O     3.854000000    -1.574000000     4.160000000
H     3.497000000    -0.686000000     4.178000000
H     4.513000000    -1.580000000     4.855000000
O    -0.815000000    -5.985000000     1.216000000
H    -1.656000000    -5.555000000     1.064000000
H    -0.342000000    -5.387000000     1.795000000
O    -3.611000000    -1.956000000     0.659000000
H    -3.791000000    -1.250000000     0.039000000
H    -3.898000000    -1.611000000     1.505000000
O    -1.816000000     4.736000000     1.443000000
H    -1.316000000     5.483000000     1.770000000
H    -1.655000000     4.041000000     2.081000000
O    -0.102000000     1.117000000     8.520000000
H     0.828000000     1.337000000     8.450000000
H    -0.352000000     0.849000000     7.636000000
O     1.653000000     3.299000000     6.637000000
H     1.926000000     2.741000000     7.364000000
H     0.756000000     3.023000000     6.446000000
O    -0.617000000    -2.780000000    -4.213000000
H    -1.447000000    -2.338000000    -4.034000000
H    -0.458000000    -2.625000000    -5.144000000
O     1.347000000    -1.654000000     7.047000000
H     0.809000000    -2.411000000     6.815000000
H     1.037000000    -0.954000000     6.472000000
O     0.683000000    -2.850000000    -6.822000000
H     1.524000000    -3.307000000    -6.794000000
H     0.437000000    -2.857000000    -7.746000000
