158
-3017.02242
C     1.436000000    -0.054000000     0.309000000
H     2.510000000     0.030000000     0.453000000
C     0.837000000     0.691000000    -0.692000000
H     1.337000000     1.441000000    -1.300000000
C    -0.545000000     0.673000000    -0.863000000
H    -1.074000000     1.203000000    -1.627000000
C    -1.308000000    -0.065000000    -0.058000000
H    -2.389000000    -0.051000000    -0.171000000
C    -0.718000000    -0.856000000     0.926000000
H    -1.339000000    -1.588000000     1.436000000
C     0.647000000    -0.870000000     1.163000000
C     1.339000000    -1.564000000     2.312000000
O     2.522000000    -1.522000000     2.473000000
O     0.645000000    -2.203000000     2.995000000
O    -0.599000000    -1.210000000    -4.062000000
H    -0.341000000    -0.467000000    -4.607000000
H    -1.420000000    -1.516000000    -4.447000000
O    -3.223000000     4.021000000    -0.662000000
H    -3.988000000     4.597000000    -0.652000000
H    -3.484000000     3.287000000    -1.218000000
O    -4.746000000     2.113000000    -2.324000000
H    -5.332000000     2.852000000    -2.482000000
H    -5.318000000     1.345000000    -2.339000000
O     3.509000000    -2.427000000     4.731000000
H     3.021000000    -3.184000000     5.054000000
H     3.106000000    -2.224000000     3.887000000
O     3.828000000    -6.234000000     2.946000000
H     4.635000000    -6.558000000     3.345000000
H     3.382000000    -5.768000000     3.653000000
O     4.586000000     2.178000000     0.008000000
H     4.208000000     2.940000000     0.447000000
H     5.100000000     2.547000000    -0.711000000
O     1.888000000    -4.177000000    -1.642000000
H     1.762000000    -4.245000000    -2.589000000
H     1.196000000    -3.584000000    -1.350000000
O    -3.215000000     0.393000000     3.140000000
H    -2.419000000     0.798000000     2.795000000
H    -3.876000000     1.083000000     3.088000000
O     2.582000000     0.895000000    -5.099000000
H     1.807000000     0.472000000    -5.468000000
H     2.418000000     1.832000000    -5.208000000
O    -6.533000000    -0.007000000    -1.837000000
H    -6.432000000    -0.554000000    -2.616000000
H    -6.186000000    -0.542000000    -1.122000000
O     4.499000000    -3.743000000    -1.244000000
H     4.737000000    -3.943000000    -0.339000000
H     3.562000000    -3.931000000    -1.293000000
O     6.022000000     3.386000000     2.413000000
H     6.417000000     3.610000000     1.570000000
H     5.163000000     3.030000000     2.188000000
O     0.781000000    -3.496000000     5.396000000
H     0.168000000    -4.173000000     5.110000000
H     0.876000000    -2.922000000     4.637000000
O    -3.098000000    -1.754000000    -5.065000000
H    -2.603000000    -2.172000000    -5.769000000
H    -3.534000000    -2.478000000    -4.616000000
O     0.780000000    -2.076000000     7.775000000
H     1.002000000    -1.861000000     6.869000000
H     0.890000000    -3.026000000     7.829000000
O     2.396000000     1.682000000     3.275000000
H     2.261000000     2.204000000     4.066000000
H     1.911000000     0.872000000     3.437000000
O    -1.693000000     2.696000000     1.483000000
H    -1.245000000     2.004000000     0.997000000
H    -2.255000000     3.120000000     0.834000000
O     4.846000000     0.002000000     2.093000000
H     4.787000000     0.602000000     1.350000000
H     4.099000000    -0.588000000     1.985000000
O    -3.089000000     1.093000000    -4.736000000
H    -3.226000000     1.150000000    -3.790000000
H    -3.218000000     0.167000000    -4.941000000
O    -1.466000000     4.718000000     3.098000000
H    -1.504000000     3.838000000     2.724000000
H    -0.762000000     4.673000000     3.745000000
O    -0.796000000     2.545000000    -3.663000000
H    -1.052000000     1.699000000    -4.029000000
H    -1.569000000     3.099000000    -3.775000000
O     2.693000000    -5.510000000     5.562000000
H     2.332000000    -6.397000000     5.573000000
H     1.947000000    -4.946000000     5.767000000
O     4.286000000     0.448000000     5.111000000
H     4.284000000     0.708000000     4.190000000
H     4.093000000    -0.489000000     5.095000000
O    -4.235000000     6.681000000    -2.782000000
H    -4.760000000     5.908000000    -2.989000000
H    -3.329000000     6.394000000    -2.895000000
O    -0.581000000     4.570000000    -1.245000000
H    -1.492000000     4.398000000    -1.007000000
H    -0.470000000     4.141000000    -2.093000000
O     4.060000000     1.637000000    -2.579000000
H     4.079000000     1.049000000    -1.823000000
H     3.242000000     1.423000000    -3.028000000
O    -2.202000000    -4.435000000    -1.133000000
H    -1.635000000    -3.715000000    -1.409000000
H    -2.458000000    -4.208000000    -0.239000000
O    -3.979000000     3.584000000    -5.492000000
H    -4.903000000     3.371000000    -5.358000000
H    -3.513000000     2.779000000    -5.267000000
O    -6.074000000    -1.753000000    -3.830000000
H    -6.792000000    -2.386000000    -3.799000000
H    -5.287000000    -2.277000000    -3.684000000
O     5.166000000    -3.104000000     2.232000000
H     4.271000000    -2.886000000     2.495000000
H     5.571000000    -3.451000000     3.027000000
O    -4.204000000    -1.963000000     2.758000000
H    -4.735000000    -2.179000000     3.524000000
H    -3.849000000    -1.095000000     2.950000000
O     0.107000000     0.449000000    -6.357000000
H     0.359000000    -0.169000000    -7.042000000
H    -0.335000000     1.158000000    -6.824000000
O     1.261000000     3.425000000    -5.327000000
H     0.515000000     3.202000000    -4.769000000
H     0.920000000     4.086000000    -5.929000000
O     1.584000000     6.170000000    -2.082000000
H     0.840000000     5.576000000    -1.982000000
H     2.295000000     5.745000000    -1.602000000
O    -2.311000000     5.409000000    -4.375000000
H    -2.808000000     5.059000000    -5.114000000
H    -1.772000000     6.103000000    -4.755000000
O    -0.320000000    -4.703000000     2.719000000
H     0.111000000    -3.862000000     2.871000000
H    -0.994000000    -4.511000000     2.066000000
O    -4.130000000    -3.454000000    -3.043000000
H    -3.586000000    -3.740000000    -2.309000000
H    -4.842000000    -4.093000000    -3.077000000
O     2.860000000     3.609000000     1.478000000
H     1.971000000     3.678000000     1.129000000
H     2.767000000     3.073000000     2.265000000
O     7.277000000    -0.531000000     2.884000000
H     7.816000000    -0.464000000     2.096000000
H     6.376000000    -0.488000000     2.563000000
O    -0.475000000    -2.639000000    -1.877000000
H    -0.660000000    -1.877000000    -1.328000000
H    -0.421000000    -2.287000000    -2.765000000
O    -0.187000000     7.212000000    -0.252000000
H    -0.576000000     6.547000000    -0.821000000
H     0.724000000     7.271000000    -0.541000000
O     1.562000000    -6.640000000     1.673000000
H     1.093000000    -6.009000000     2.219000000
H     2.449000000    -6.655000000     2.032000000
O    -3.041000000    -4.630000000     4.956000000
H    -2.853000000    -3.700000000     4.830000000
H    -2.626000000    -4.847000000     5.791000000
O    -5.345000000    -1.794000000     0.013000000
H    -4.740000000    -1.922000000     0.744000000
H    -5.937000000    -2.545000000     0.058000000
O    -2.779000000    -4.129000000     1.482000000
H    -3.110000000    -3.327000000     1.887000000
H    -3.561000000    -4.658000000     1.325000000
O     2.112000000     1.973000000     6.053000000
H     1.456000000     1.386000000     5.678000000
H     2.949000000     1.550000000     5.862000000
O     7.333000000    -4.060000000     0.967000000
H     6.477000000    -3.790000000     1.300000000
H     7.150000000    -4.840000000     0.442000000
O     0.044000000     0.088000000     4.476000000
H    -0.801000000    -0.082000000     4.892000000
H     0.302000000    -0.756000000     4.105000000
