158
-3000.14094
C     1.276000000    -0.762000000    -0.130000000
H     2.236000000    -1.261000000    -0.236000000
C     0.625000000    -0.014000000    -1.186000000
H     1.071000000    -0.037000000    -2.177000000
C    -0.604000000     0.565000000    -0.949000000
H    -1.133000000     1.096000000    -1.726000000
C    -1.131000000     0.507000000     0.327000000
H    -2.107000000     0.955000000     0.490000000
C    -0.415000000    -0.156000000     1.379000000
H    -0.964000000    -0.136000000     2.317000000
C     0.799000000    -0.833000000     1.130000000
C     1.486000000    -1.474000000     2.344000000
O     2.609000000    -2.027000000     2.214000000
O     0.898000000    -1.414000000     3.402000000
O     1.358000000     1.691000000    -4.948000000
H     1.705000000     0.883000000    -4.568000000
H     0.546000000     1.852000000    -4.468000000
O     1.239000000     2.789000000    -0.682000000
H     1.153000000     1.845000000    -0.822000000
H     0.364000000     3.137000000    -0.852000000
O     2.525000000     3.009000000     4.455000000
H     1.941000000     2.265000000     4.604000000
H     1.942000000     3.727000000     4.210000000
O     4.362000000     1.194000000    -0.734000000
H     3.983000000     1.698000000    -0.013000000
H     4.249000000     1.754000000    -1.502000000
O     3.927000000    -3.874000000     0.737000000
H     4.255000000    -3.557000000    -0.104000000
H     3.544000000    -3.101000000     1.152000000
O    -3.050000000     3.680000000     3.887000000
H    -2.310000000     3.087000000     3.761000000
H    -3.574000000     3.582000000     3.092000000
O     2.865000000    -0.845000000    -3.984000000
H     3.612000000    -0.800000000    -3.387000000
H     3.258000000    -0.925000000    -4.854000000
O     2.415000000     5.025000000     0.387000000
H     3.358000000     4.861000000     0.392000000
H     2.043000000     4.265000000    -0.061000000
O    -2.454000000    -1.538000000    -2.429000000
H    -1.939000000    -0.788000000    -2.131000000
H    -2.105000000    -2.280000000    -1.935000000
O     0.905000000     0.374000000     7.565000000
H     1.304000000     0.719000000     8.364000000
H     0.346000000    -0.342000000     7.867000000
O    -1.293000000     4.008000000    -1.102000000
H    -2.175000000     3.645000000    -1.021000000
H    -1.352000000     4.874000000    -0.699000000
O    -4.256000000    -2.745000000     2.114000000
H    -5.027000000    -3.156000000     1.724000000
H    -4.339000000    -2.921000000     3.051000000
O    -1.440000000    -2.963000000     1.405000000
H    -2.364000000    -2.754000000     1.537000000
H    -0.971000000    -2.204000000     1.752000000
O     3.934000000    -6.466000000     1.773000000
H     3.970000000    -5.559000000     1.468000000
H     3.324000000    -6.896000000     1.174000000
O     4.450000000    -5.372000000     5.323000000
H     3.755000000    -6.010000000     5.163000000
H     4.151000000    -4.577000000     4.883000000
O     3.571000000    -2.824000000     4.481000000
H     2.823000000    -2.777000000     5.076000000
H     3.193000000    -2.697000000     3.611000000
O    -4.583000000     0.454000000    -6.071000000
H    -5.470000000     0.125000000    -6.217000000
H    -4.221000000    -0.122000000    -5.398000000
O     4.929000000    -1.026000000     2.718000000
H     4.002000000    -1.265000000     2.693000000
H     5.392000000    -1.863000000     2.709000000
O    -1.213000000     1.985000000     3.442000000
H    -0.591000000     1.700000000     4.111000000
H    -0.735000000     1.898000000     2.618000000
O     6.970000000    -3.271000000     1.906000000
H     6.548000000    -2.767000000     1.210000000
H     6.445000000    -4.069000000     1.975000000
O    -3.514000000     2.839000000    -5.253000000
H    -3.603000000     3.413000000    -6.013000000
H    -3.905000000     2.011000000    -5.531000000
O    -0.796000000     3.078000000    -3.778000000
H    -0.956000000     3.497000000    -2.932000000
H    -1.668000000     2.960000000    -4.155000000
O    -4.045000000     3.030000000    -1.030000000
H    -4.869000000     2.853000000    -1.483000000
H    -4.292000000     3.130000000    -0.111000000
O     6.339000000    -1.101000000     5.368000000
H     5.880000000    -0.900000000     4.552000000
H     6.063000000    -0.413000000     5.974000000
O     0.978000000     5.096000000    -4.313000000
H     0.321000000     4.418000000    -4.157000000
H     1.059000000     5.549000000    -3.474000000
O     3.627000000     3.779000000    -2.810000000
H     3.274000000     4.542000000    -2.351000000
H     2.949000000     3.546000000    -3.444000000
O    -2.328000000    -4.609000000     3.497000000
H    -1.819000000    -4.287000000     2.753000000
H    -2.730000000    -3.824000000     3.870000000
O    -0.689000000     2.350000000    -7.115000000
H     0.122000000     2.132000000    -6.656000000
H    -0.874000000     3.254000000    -6.860000000
O     0.586000000    -2.398000000    -4.098000000
H     1.393000000    -1.915000000    -3.920000000
H     0.528000000    -3.037000000    -3.387000000
O    -1.933000000    -1.591000000    -5.072000000
H    -2.516000000    -1.666000000    -4.317000000
H    -1.054000000    -1.696000000    -4.708000000
O     0.721000000    -3.944000000     4.379000000
H     0.624000000    -3.016000000     4.166000000
H     1.462000000    -4.236000000     3.848000000
O    -5.492000000    -0.111000000     3.134000000
H    -5.674000000     0.528000000     2.445000000
H    -5.562000000    -0.960000000     2.697000000
O    -5.867000000    -1.805000000    -0.627000000
H    -4.969000000    -1.709000000    -0.311000000
H    -6.365000000    -1.151000000    -0.136000000
O     5.947000000    -1.432000000    -0.192000000
H     6.695000000    -1.069000000    -0.667000000
H     5.205000000    -0.894000000    -0.467000000
O     3.470000000    -3.612000000    -2.138000000
H     3.642000000    -4.383000000    -2.678000000
H     3.925000000    -2.899000000    -2.587000000
O    -1.726000000    -0.915000000     4.826000000
H    -0.866000000    -0.856000000     4.409000000
H    -1.581000000    -1.462000000     5.597000000
O    -4.937000000     3.594000000     1.557000000
H    -5.674000000     2.996000000     1.682000000
H    -5.343000000     4.432000000     1.337000000
O    -1.854000000    -4.049000000    -1.075000000
H    -1.608000000    -3.685000000    -0.225000000
H    -1.027000000    -4.131000000    -1.550000000
O     1.172000000    -1.150000000    -6.944000000
H     0.624000000    -1.457000000    -6.222000000
H     2.038000000    -1.515000000    -6.759000000
O     3.918000000     1.766000000     1.797000000
H     3.293000000     1.894000000     2.511000000
H     4.284000000     0.895000000     1.952000000
O    -5.550000000    -1.515000000    -3.258000000
H    -5.581000000    -2.368000000    -3.691000000
H    -5.685000000    -1.712000000    -2.331000000
O     0.776000000    -3.917000000     6.968000000
H     0.759000000    -3.844000000     6.013000000
H     1.443000000    -3.290000000     7.245000000
O    -6.527000000     0.532000000     0.511000000
H    -7.228000000     0.967000000     0.996000000
H    -6.459000000     1.024000000    -0.307000000
O    -3.924000000     0.588000000     5.208000000
H    -4.567000000     0.293000000     4.563000000
H    -3.193000000    -0.022000000     5.114000000
O    -5.910000000     1.198000000    -3.296000000
H    -5.612000000     0.288000000    -3.285000000
H    -6.817000000     1.157000000    -2.995000000
O     1.126000000     0.769000000     4.888000000
H     1.017000000     0.564000000     5.816000000
H     0.948000000    -0.056000000     4.438000000
O     0.864000000    -4.350000000    -2.195000000
H     1.804000000    -4.232000000    -2.053000000
H     0.747000000    -5.298000000    -2.254000000
O    -4.242000000     5.088000000    -3.414000000
H    -5.146000000     5.391000000    -3.502000000
H    -4.295000000     4.140000000    -3.534000000
