158
-3043.78527
C     0.268000000    -1.293000000     0.681000000
H     0.443000000    -2.289000000     1.080000000
C     0.947000000    -0.825000000    -0.417000000
H     1.739000000    -1.442000000    -0.834000000
C     0.606000000     0.428000000    -0.988000000
H     1.174000000     0.897000000    -1.838000000
C    -0.479000000     1.163000000    -0.436000000
H    -0.751000000     2.118000000    -0.880000000
C    -1.192000000     0.678000000     0.668000000
H    -2.142000000     1.138000000     0.928000000
C    -0.804000000    -0.510000000     1.249000000
C    -1.538000000    -1.139000000     2.440000000
O    -0.956000000    -1.854000000     3.263000000
O    -2.639000000    -0.671000000     2.742000000
O     3.683000000     1.247000000    -3.503000000
H     3.984000000     1.055000000    -4.391000000
H     4.000000000     2.133000000    -3.329000000
O    -0.354000000     1.463000000    -5.063000000
H    -1.142000000     1.985000000    -4.912000000
H    -0.566000000     0.599000000    -4.710000000
O     1.128000000     5.151000000     1.800000000
H     0.733000000     4.391000000     2.229000000
H     2.059000000     4.938000000     1.746000000
O     0.524000000    -1.905000000    -6.560000000
H     0.737000000    -1.737000000    -5.642000000
H     0.292000000    -1.046000000    -6.913000000
O     1.360000000     3.334000000    -3.720000000
H     0.883000000     2.598000000    -4.106000000
H     1.991000000     2.926000000    -3.128000000
O    -0.078000000    -5.571000000     4.950000000
H    -0.186000000    -6.290000000     5.574000000
H    -0.196000000    -4.779000000     5.475000000
O     3.661000000     0.474000000    -6.133000000
H     4.418000000     0.695000000    -6.677000000
H     3.240000000    -0.252000000    -6.593000000
O    -2.009000000    -1.636000000    -1.346000000
H    -1.090000000    -1.407000000    -1.210000000
H    -2.142000000    -2.421000000    -0.815000000
O     1.681000000    -0.964000000    -4.218000000
H     2.366000000    -0.305000000    -4.339000000
H     1.960000000    -1.461000000    -3.450000000
O    -1.531000000     5.578000000     1.067000000
H    -2.408000000     5.377000000     1.395000000
H    -0.942000000     5.105000000     1.655000000
O    -6.772000000    -0.134000000     3.180000000
H    -7.131000000    -0.743000000     3.825000000
H    -7.285000000    -0.296000000     2.388000000
O    -3.451000000    -1.605000000     5.242000000
H    -2.927000000    -1.156000000     5.905000000
H    -2.985000000    -1.446000000     4.421000000
O     3.637000000    -2.991000000     4.417000000
H     3.776000000    -3.756000000     3.859000000
H     3.235000000    -2.342000000     3.840000000
O     1.764000000    -0.922000000     3.707000000
H     0.908000000    -1.236000000     3.416000000
H     1.840000000    -0.047000000     3.326000000
O    -3.604000000     1.772000000    -4.050000000
H    -3.462000000     2.175000000    -3.193000000
H    -3.597000000     0.830000000    -3.876000000
O     0.030000000     3.009000000     3.192000000
H    -0.638000000     2.523000000     3.677000000
H     0.548000000     2.333000000     2.755000000
O     0.449000000     5.618000000    -0.842000000
H     1.184000000     5.397000000    -0.269000000
H    -0.327000000     5.487000000    -0.297000000
O    -4.160000000     4.856000000     1.887000000
H    -4.473000000     3.981000000     2.116000000
H    -4.950000000     5.397000000     1.876000000
O    -3.297000000     3.737000000     4.906000000
H    -2.666000000     3.018000000     4.927000000
H    -4.048000000     3.384000000     4.430000000
O     2.364000000    -2.399000000     6.673000000
H     2.580000000    -2.748000000     5.809000000
H     3.062000000    -1.772000000     6.860000000
O     4.081000000    -3.740000000    -3.201000000
H     3.392000000    -3.634000000    -2.544000000
H     3.716000000    -4.360000000    -3.832000000
O     3.548000000     4.530000000    -0.567000000
H     3.727000000     4.387000000     0.362000000
H     3.893000000     5.405000000    -0.746000000
O     4.310000000     3.834000000    -2.957000000
H     4.111000000     3.970000000    -2.030000000
H     3.808000000     4.510000000    -3.411000000
O    -1.602000000    -4.535000000     3.086000000
H    -1.229000000    -3.664000000     2.951000000
H    -1.096000000    -4.902000000     3.811000000
O    -3.609000000    -4.875000000    -1.610000000
H    -3.042000000    -4.357000000    -1.039000000
H    -3.935000000    -5.579000000    -1.049000000
O    -0.563000000    -2.666000000     5.787000000
H    -0.571000000    -2.428000000     4.860000000
H     0.303000000    -2.400000000     6.096000000
O     1.648000000     0.586000000     6.074000000
H     1.579000000     1.518000000     5.867000000
H     2.015000000     0.192000000     5.282000000
O     0.146000000     6.057000000    -3.800000000
H     0.097000000     6.173000000    -2.851000000
H     0.477000000     5.166000000    -3.915000000
O    -0.927000000    -1.097000000    -3.951000000
H    -0.007000000    -1.344000000    -3.854000000
H    -1.309000000    -1.248000000    -3.087000000
O    -3.220000000     0.654000000     7.435000000
H    -3.035000000     1.175000000     8.216000000
H    -4.132000000     0.382000000     7.538000000
O     4.384000000     0.732000000     2.175000000
H     4.793000000     0.064000000     2.725000000
H     4.834000000     1.544000000     2.410000000
O     1.042000000    -3.350000000    -2.512000000
H     0.765000000    -3.670000000    -3.370000000
H     1.047000000    -4.130000000    -1.956000000
O     6.374000000    -1.206000000     1.108000000
H     5.908000000    -1.928000000     1.529000000
H     5.682000000    -0.656000000     0.741000000
O    -3.006000000    -3.281000000     0.560000000
H    -3.658000000    -2.587000000     0.657000000
H    -3.260000000    -3.941000000     1.206000000
O    -1.925000000     1.103000000     4.639000000
H    -1.864000000     0.276000000     4.161000000
H    -2.431000000     0.890000000     5.423000000
O    -4.838000000    -1.062000000     1.372000000
H    -5.583000000    -0.843000000     1.932000000
H    -4.075000000    -0.971000000     1.943000000
O     1.589000000     1.409000000     1.955000000
H     1.272000000     0.917000000     1.198000000
H     2.529000000     1.506000000     1.800000000
O     0.295000000    -0.374000000     8.300000000
H     0.633000000    -0.208000000     7.420000000
H     0.965000000    -0.020000000     8.885000000
O    -2.730000000    -4.040000000     6.980000000
H    -1.965000000    -3.467000000     6.927000000
H    -3.193000000    -3.899000000     6.154000000
O     1.723000000     3.178000000    -6.695000000
H     0.918000000     2.924000000    -6.244000000
H     2.386000000     2.574000000    -6.360000000
O    -6.223000000    -2.059000000     6.034000000
H    -5.485000000    -2.443000000     5.560000000
H    -6.230000000    -2.514000000     6.876000000
O    -4.820000000     2.205000000     3.423000000
H    -5.649000000     1.962000000     3.010000000
H    -4.284000000     1.414000000     3.366000000
O    -3.997000000     0.337000000    -0.894000000
H    -4.519000000    -0.318000000    -0.431000000
H    -3.090000000     0.078000000    -0.730000000
O    -3.438000000    -6.304000000     2.395000000
H    -4.154000000    -6.037000000     2.971000000
H    -2.720000000    -5.709000000     2.613000000
O    -4.912000000    -4.065000000     4.189000000
H    -5.687000000    -3.875000000     3.659000000
H    -4.426000000    -3.240000000     4.206000000
O    -6.797000000     1.013000000    -1.573000000
H    -7.023000000     0.322000000    -2.195000000
H    -5.849000000     0.942000000    -1.469000000
O     2.548000000    -5.644000000    -1.161000000
H     2.215000000    -6.505000000    -1.415000000
H     3.497000000    -5.758000000    -1.117000000
O     0.370000000     0.633000000    -7.918000000
H    -0.344000000     0.955000000    -7.367000000
H     1.079000000     1.262000000    -7.783000000
