158
-3040.33069
C    -1.398000000     0.251000000     0.417000000
H    -2.353000000     0.380000000     0.919000000
C    -0.235000000     0.486000000     1.138000000
H    -0.262000000     0.773000000     2.186000000
C     0.990000000     0.235000000     0.666000000
H     1.810000000     0.414000000     1.295000000
C     1.094000000    -0.137000000    -0.717000000
H     2.099000000    -0.326000000    -1.085000000
C    -0.015000000    -0.323000000    -1.491000000
H     0.119000000    -0.685000000    -2.507000000
C    -1.308000000    -0.210000000    -0.930000000
C    -2.506000000    -0.608000000    -1.603000000
O    -2.483000000    -0.887000000    -2.820000000
O    -3.531000000    -0.652000000    -0.976000000
O    -6.278000000     0.605000000     2.414000000
H    -7.078000000     0.247000000     2.028000000
H    -5.661000000     0.652000000     1.684000000
O    -3.345000000    -3.026000000     0.405000000
H    -2.937000000    -2.822000000     1.246000000
H    -3.244000000    -2.226000000    -0.111000000
O    -4.062000000    -1.135000000    -6.582000000
H    -4.054000000    -1.041000000    -5.629000000
H    -4.673000000    -0.462000000    -6.884000000
O     2.554000000    -2.382000000     2.535000000
H     2.789000000    -1.454000000     2.571000000
H     1.632000000    -2.406000000     2.792000000
O     0.960000000     2.621000000    -3.272000000
H     1.620000000     2.125000000    -3.755000000
H     1.207000000     3.537000000    -3.400000000
O    -1.390000000     2.482000000     6.339000000
H    -0.546000000     2.749000000     6.702000000
H    -1.238000000     2.426000000     5.396000000
O    -5.957000000    -1.735000000    -0.905000000
H    -6.020000000    -2.375000000    -1.614000000
H    -5.093000000    -1.339000000    -1.016000000
O    -5.760000000    -3.110000000     2.042000000
H    -6.553000000    -2.983000000     1.521000000
H    -5.042000000    -2.988000000     1.420000000
O    -6.089000000    -3.335000000    -3.434000000
H    -7.005000000    -3.167000000    -3.655000000
H    -5.940000000    -4.242000000    -3.702000000
O     2.229000000    -3.156000000     6.108000000
H     3.118000000    -3.398000000     5.851000000
H     1.907000000    -2.620000000     5.383000000
O     3.947000000     3.592000000     3.902000000
H     4.309000000     2.817000000     3.471000000
H     3.719000000     3.292000000     4.782000000
O    -5.722000000    -1.479000000     4.464000000
H    -5.665000000    -0.904000000     3.701000000
H    -5.801000000    -2.359000000     4.096000000
O    -4.773000000     1.420000000     0.374000000
H    -5.351000000     1.536000000    -0.380000000
H    -4.158000000     0.739000000     0.101000000
O     2.772000000    -5.365000000     3.677000000
H     2.370000000    -5.537000000     2.825000000
H     2.874000000    -4.414000000     3.706000000
O    -7.939000000    -1.161000000     1.101000000
H    -7.478000000    -1.097000000     0.265000000
H    -8.728000000    -1.665000000     0.902000000
O     4.184000000    -1.296000000    -1.488000000
H     4.913000000    -1.877000000    -1.270000000
H     3.411000000    -1.741000000    -1.139000000
O     2.062000000    -4.316000000    -4.025000000
H     2.441000000    -5.085000000    -4.452000000
H     1.284000000    -4.113000000    -4.544000000
O    -0.062000000    -2.495000000     1.529000000
H    -0.856000000    -2.604000000     2.053000000
H     0.041000000    -1.547000000     1.447000000
O     4.008000000     5.155000000     0.330000000
H     4.223000000     4.648000000    -0.453000000
H     3.286000000     5.722000000     0.058000000
O     6.068000000     1.057000000    -0.691000000
H     5.583000000     0.479000000    -1.280000000
H     6.389000000     1.760000000    -1.256000000
O     4.169000000    -0.698000000     6.290000000
H     4.316000000    -1.516000000     5.816000000
H     4.846000000    -0.106000000     5.962000000
O     0.591000000    -1.751000000     4.372000000
H     0.270000000    -0.920000000     4.021000000
H    -0.094000000    -2.037000000     4.976000000
O     4.709000000     3.691000000    -1.911000000
H     5.622000000     3.641000000    -2.194000000
H     4.212000000     3.316000000    -2.638000000
O    -2.457000000    -2.384000000     2.922000000
H    -2.691000000    -1.512000000     3.239000000
H    -3.036000000    -2.977000000     3.401000000
O     1.871000000     0.626000000     6.817000000
H     2.188000000    -0.127000000     6.318000000
H     1.732000000     1.307000000     6.160000000
O     6.661000000    -0.699000000     1.333000000
H     6.079000000    -1.458000000     1.298000000
H     6.511000000    -0.244000000     0.504000000
O     4.932000000    -2.940000000     1.444000000
H     4.651000000    -3.284000000     0.596000000
H     4.134000000    -2.921000000     1.972000000
O     4.349000000     2.186000000     1.472000000
H     4.806000000     1.701000000     0.785000000
H     4.133000000     3.027000000     1.068000000
O    -0.780000000    -0.529000000    -5.347000000
H    -0.883000000    -0.512000000    -4.395000000
H    -1.425000000     0.100000000    -5.670000000
O     2.753000000    -4.329000000    -1.194000000
H     2.550000000    -4.246000000    -2.126000000
H     1.902000000    -4.452000000    -0.774000000
O    -4.005000000    -5.562000000     0.783000000
H    -3.694000000    -4.707000000     0.485000000
H    -4.210000000    -5.433000000     1.709000000
O    -3.423000000     0.394000000     3.580000000
H    -4.202000000     0.675000000     4.059000000
H    -3.095000000     1.193000000     3.167000000
O    -2.370000000     2.490000000     2.621000000
H    -2.677000000     2.530000000     1.715000000
H    -1.896000000     3.312000000     2.749000000
O    -4.151000000     4.235000000    -0.585000000
H    -4.232000000     3.606000000    -1.302000000
H    -4.142000000     5.089000000    -1.016000000
O     6.248000000    -0.131000000     4.171000000
H     6.498000000    -0.556000000     3.351000000
H     7.060000000     0.254000000     4.499000000
O    -8.441000000    -0.156000000    -1.942000000
H    -8.642000000     0.602000000    -2.491000000
H    -7.519000000    -0.343000000    -2.119000000
O    -4.737000000    -0.831000000    -4.092000000
H    -5.234000000    -1.602000000    -3.816000000
H    -3.906000000    -0.901000000    -3.621000000
O     3.772000000    -0.025000000     3.066000000
H     4.603000000    -0.160000000     3.523000000
H     3.901000000     0.781000000     2.567000000
O    -4.531000000     1.662000000    -2.675000000
H    -3.583000000     1.663000000    -2.803000000
H    -4.845000000     0.939000000    -3.219000000
O     4.336000000    -0.283000000    -4.032000000
H     3.453000000    -0.612000000    -4.198000000
H     4.520000000    -0.536000000    -3.127000000
O     2.005000000    -1.395000000    -4.540000000
H     1.151000000    -1.056000000    -4.810000000
H     1.813000000    -2.257000000    -4.169000000
O     0.728000000     2.967000000    -0.510000000
H     0.936000000     2.445000000    -1.285000000
H     0.478000000     2.324000000     0.153000000
O    -1.036000000    -3.083000000    -3.427000000
H    -1.641000000    -2.342000000    -3.465000000
H    -0.885000000    -3.316000000    -4.344000000
O     2.638000000     5.927000000     2.969000000
H     3.177000000     5.238000000     3.358000000
H     2.868000000     6.717000000     3.458000000
O    -0.394000000    -4.147000000    -1.099000000
H    -0.627000000    -3.545000000    -0.391000000
H    -0.700000000    -3.710000000    -1.894000000
O    -2.030000000     2.327000000    -3.560000000
H    -2.101000000     2.081000000    -4.482000000
H    -1.207000000     1.932000000    -3.270000000
O     0.651000000     4.109000000     2.626000000
H     1.293000000     4.477000000     3.234000000
H     1.090000000     4.125000000     1.776000000
O    -6.719000000     3.263000000    -2.063000000
H    -6.421000000     3.778000000    -1.313000000
H    -6.002000000     2.651000000    -2.232000000
