158
-3036.40464
C     0.135000000    -0.356000000     1.485000000
H     0.422000000    -0.448000000     2.530000000
C     0.956000000    -0.873000000     0.478000000
H     1.848000000    -1.465000000     0.664000000
C     0.737000000    -0.459000000    -0.826000000
H     1.409000000    -0.742000000    -1.590000000
C    -0.321000000     0.320000000    -1.188000000
H    -0.464000000     0.576000000    -2.235000000
C    -1.152000000     0.709000000    -0.196000000
H    -1.906000000     1.386000000    -0.588000000
C    -0.923000000     0.585000000     1.139000000
C    -1.849000000     1.124000000     2.212000000
O    -1.613000000     0.900000000     3.401000000
O    -2.878000000     1.734000000     1.905000000
O    -1.913000000     2.170000000    -4.967000000
H    -1.596000000     3.017000000    -4.652000000
H    -2.237000000     1.729000000    -4.181000000
O     3.787000000    -3.292000000    -0.799000000
H     4.583000000    -2.863000000    -0.484000000
H     3.247000000    -3.400000000    -0.016000000
O    -1.523000000    -2.340000000    -3.651000000
H    -1.623000000    -2.830000000    -2.835000000
H    -0.581000000    -2.344000000    -3.819000000
O     3.708000000    -0.052000000     5.410000000
H     4.090000000    -0.332000000     4.578000000
H     4.319000000    -0.372000000     6.073000000
O     1.748000000     2.838000000    -4.317000000
H     2.071000000     2.949000000    -5.211000000
H     1.678000000     1.890000000    -4.204000000
O     4.883000000    -1.620000000     3.530000000
H     5.056000000    -1.958000000     4.408000000
H     5.532000000    -2.051000000     2.974000000
O     3.846000000    -5.639000000    -2.306000000
H     3.492000000    -6.272000000    -1.681000000
H     3.817000000    -4.803000000    -1.841000000
O    -0.292000000     4.786000000     1.973000000
H     0.604000000     4.460000000     2.055000000
H    -0.615000000     4.827000000     2.873000000
O     2.127000000    -0.257000000    -7.439000000
H     2.106000000    -0.061000000    -6.503000000
H     1.246000000    -0.574000000    -7.638000000
O     3.765000000     0.289000000     1.867000000
H     3.109000000    -0.251000000     1.428000000
H     4.018000000    -0.220000000     2.637000000
O    -5.327000000     0.977000000     1.414000000
H    -4.419000000     1.252000000     1.534000000
H    -5.288000000     0.021000000     1.395000000
O     1.436000000    -1.414000000     6.536000000
H     0.743000000    -0.813000000     6.263000000
H     2.241000000    -1.021000000     6.198000000
O     0.185000000     0.922000000     5.527000000
H    -0.495000000     1.043000000     4.864000000
H     0.881000000     1.527000000     5.269000000
O    -7.743000000     2.645000000     1.760000000
H    -8.379000000     2.945000000     1.110000000
H    -7.279000000     1.928000000     1.328000000
O     2.190000000     3.791000000     2.564000000
H     3.069000000     4.052000000     2.288000000
H     2.321000000     3.360000000     3.408000000
O    -0.939000000    -3.472000000     4.982000000
H    -0.741000000    -4.371000000     4.720000000
H    -0.955000000    -3.498000000     5.938000000
O     5.156000000     0.857000000    -4.769000000
H     4.958000000     1.553000000    -5.395000000
H     6.009000000     1.095000000    -4.407000000
O     4.536000000     3.229000000    -2.138000000
H     4.096000000     4.034000000    -1.863000000
H     4.918000000     2.878000000    -1.334000000
O     2.005000000     0.122000000    -4.661000000
H     2.018000000    -0.693000000    -4.159000000
H     2.919000000     0.405000000    -4.683000000
O    -2.214000000    -1.023000000     5.306000000
H    -1.618000000    -1.760000000     5.172000000
H    -1.991000000    -0.405000000     4.609000000
O    -1.462000000    -2.433000000    -0.469000000
H    -1.877000000    -2.547000000     0.386000000
H    -1.073000000    -1.559000000    -0.431000000
O    -4.768000000     3.443000000     3.129000000
H    -5.429000000     2.876000000     2.729000000
H    -3.934000000     3.104000000     2.804000000
O    -2.753000000     4.093000000     0.703000000
H    -2.073000000     4.481000000     1.253000000
H    -2.903000000     3.227000000     1.082000000
O     2.516000000     2.401000000     4.905000000
H     2.815000000     2.762000000     5.740000000
H     2.861000000     1.508000000     4.893000000
O    -1.110000000     4.569000000    -4.144000000
H    -0.332000000     4.420000000    -3.606000000
H    -1.831000000     4.612000000    -3.516000000
O     4.815000000    -2.444000000    -4.825000000
H     4.976000000    -1.656000000    -5.344000000
H     5.181000000    -3.155000000    -5.350000000
O    -2.727000000     0.280000000    -3.364000000
H    -3.113000000     0.043000000    -2.521000000
H    -2.151000000    -0.454000000    -3.579000000
O    -5.006000000     5.778000000     0.131000000
H    -4.194000000     6.148000000    -0.217000000
H    -4.724000000     5.213000000     0.849000000
O     5.607000000     1.609000000    -0.162000000
H     5.806000000     0.798000000    -0.632000000
H     4.734000000     1.465000000     0.203000000
O     2.181000000    -3.835000000     1.405000000
H     2.645000000    -3.905000000     2.240000000
H     1.371000000    -4.328000000     1.539000000
O     1.864000000     2.287000000     0.154000000
H     1.872000000     2.353000000     1.109000000
H     1.270000000     1.560000000    -0.031000000
O    -4.689000000    -0.533000000    -1.551000000
H    -4.646000000    -0.519000000    -0.595000000
H    -5.017000000    -1.407000000    -1.763000000
O     0.923000000    -4.035000000    -3.651000000
H     1.739000000    -3.546000000    -3.542000000
H     1.076000000    -4.590000000    -4.416000000
O    -2.890000000     4.104000000    -2.068000000
H    -2.853000000     4.191000000    -1.115000000
H    -3.825000000     4.101000000    -2.272000000
O    -4.502000000     2.054000000     5.606000000
H    -5.384000000     2.166000000     5.960000000
H    -4.524000000     2.504000000     4.761000000
O    -0.216000000     5.891000000    -0.590000000
H     0.424000000     5.413000000    -1.118000000
H    -0.270000000     5.395000000     0.227000000
O    -4.890000000    -0.947000000     3.868000000
H    -4.034000000    -1.069000000     4.279000000
H    -4.770000000    -1.254000000     2.970000000
O     2.829000000    -2.037000000    -3.147000000
H     3.532000000    -2.349000000    -3.717000000
H     3.175000000    -2.143000000    -2.261000000
O     1.895000000     4.530000000    -1.909000000
H     1.899000000     3.873000000    -1.212000000
H     1.796000000     4.023000000    -2.715000000
O     0.536000000    -5.983000000     0.819000000
H     0.093000000    -5.512000000     0.113000000
H     1.390000000    -6.214000000     0.453000000
O    -0.415000000    -4.653000000    -1.264000000
H    -0.814000000    -3.832000000    -0.975000000
H     0.033000000    -4.427000000    -2.079000000
O    -6.995000000     1.248000000    -1.237000000
H    -7.490000000     0.701000000    -0.627000000
H    -6.116000000     0.868000000    -1.240000000
O    -5.527000000     3.858000000    -1.922000000
H    -5.689000000     4.519000000    -1.248000000
H    -5.963000000     3.071000000    -1.595000000
O    -1.490000000     4.052000000     4.332000000
H    -1.502000000     4.095000000     5.288000000
H    -1.867000000     3.196000000     4.126000000
O    -4.868000000    -1.740000000     1.111000000
H    -4.291000000    -2.493000000     1.234000000
H    -5.675000000    -2.112000000     0.754000000
O    -2.269000000    -2.342000000     2.577000000
H    -2.168000000    -2.607000000     3.491000000
H    -1.778000000    -1.523000000     2.510000000
O    -2.894000000     0.686000000     7.419000000
H    -3.023000000     1.349000000     6.741000000
H    -2.616000000    -0.095000000     6.940000000
O    -2.105000000    -2.402000000    -6.391000000
H    -1.977000000    -2.616000000    -5.467000000
H    -3.040000000    -2.209000000    -6.464000000
