158
-3026.28140
C     0.507000000    -0.355000000     1.338000000
H     1.032000000    -0.496000000     2.279000000
C     1.069000000    -0.720000000     0.150000000
H     2.028000000    -1.231000000     0.184000000
C     0.434000000    -0.381000000    -1.023000000
H     0.869000000    -0.752000000    -1.963000000
C    -0.696000000     0.390000000    -1.089000000
H    -1.093000000     0.714000000    -2.047000000
C    -1.340000000     0.680000000     0.118000000
H    -2.326000000     1.137000000     0.130000000
C    -0.699000000     0.379000000     1.340000000
C    -1.245000000     0.909000000     2.656000000
O    -1.033000000     0.292000000     3.667000000
O    -1.838000000     1.967000000     2.649000000
O     4.470000000     0.652000000    -1.975000000
H     4.994000000     0.067000000    -1.428000000
H     4.271000000     1.397000000    -1.408000000
O    -0.803000000    -0.254000000    -5.297000000
H    -1.372000000    -0.701000000    -4.670000000
H    -0.102000000    -0.881000000    -5.474000000
O     3.789000000     1.456000000     5.279000000
H     3.433000000     1.734000000     6.122000000
H     4.546000000     0.915000000     5.505000000
O    -0.986000000     1.987000000     7.664000000
H    -0.573000000     1.544000000     6.923000000
H    -1.840000000     2.263000000     7.331000000
O     1.512000000     2.072000000    -4.028000000
H     1.618000000     2.157000000    -4.975000000
H     2.065000000     1.328000000    -3.791000000
O     4.544000000    -0.643000000     2.555000000
H     5.365000000    -0.252000000     2.855000000
H     4.385000000    -1.364000000     3.165000000
O    -1.307000000    -1.394000000     8.189000000
H    -0.840000000    -1.390000000     7.354000000
H    -2.202000000    -1.139000000     7.964000000
O     1.877000000    -5.124000000    -3.983000000
H     2.395000000    -5.842000000    -3.621000000
H     2.264000000    -4.334000000    -3.604000000
O    -0.617000000     4.518000000     1.490000000
H    -0.649000000     3.562000000     1.489000000
H    -0.473000000     4.752000000     2.407000000
O    -2.525000000    -1.788000000    -3.656000000
H    -3.081000000    -2.431000000    -4.095000000
H    -1.799000000    -2.302000000    -3.302000000
O     5.529000000     1.926000000     0.435000000
H     5.061000000     2.670000000     0.814000000
H     5.223000000     1.170000000     0.936000000
O    -5.937000000     1.504000000    -0.090000000
H    -5.629000000     0.876000000     0.563000000
H    -6.775000000     1.150000000    -0.387000000
O     0.493000000     0.370000000     5.691000000
H     0.028000000     0.444000000     4.858000000
H     1.190000000    -0.264000000     5.520000000
O     1.283000000     3.775000000     5.367000000
H     1.405000000     3.204000000     4.609000000
H     0.554000000     3.383000000     5.847000000
O    -3.597000000     3.089000000     7.186000000
H    -4.413000000     3.405000000     6.797000000
H    -3.350000000     2.338000000     6.647000000
O    -4.686000000    -2.121000000     3.851000000
H    -3.789000000    -1.853000000     4.051000000
H    -4.634000000    -3.071000000     3.746000000
O    -4.633000000     0.679000000    -6.285000000
H    -4.298000000     1.020000000    -7.115000000
H    -4.123000000     1.134000000    -5.615000000
O     1.459000000    -4.106000000     4.027000000
H     2.415000000    -4.065000000     4.070000000
H     1.170000000    -3.868000000     4.908000000
O     4.691000000    -1.546000000    -0.046000000
H     4.437000000    -2.396000000     0.313000000
H     4.428000000    -0.915000000     0.623000000
O     6.055000000     1.914000000    -3.964000000
H     5.569000000     1.351000000    -3.361000000
H     5.389000000     2.264000000    -4.554000000
O    -2.097000000    -1.967000000     4.706000000
H    -1.605000000    -2.534000000     4.111000000
H    -1.892000000    -1.078000000     4.414000000
O    -1.868000000    -2.822000000     0.493000000
H    -1.105000000    -2.304000000     0.238000000
H    -1.896000000    -2.754000000     1.448000000
O    -4.435000000     5.080000000     3.388000000
H    -4.084000000     5.933000000     3.132000000
H    -4.371000000     4.547000000     2.595000000
O     4.419000000    -3.538000000     3.986000000
H     5.155000000    -3.749000000     4.561000000
H     4.739000000    -3.734000000     3.106000000
O    -3.244000000     4.896000000     0.563000000
H    -2.494000000     4.838000000     1.154000000
H    -2.947000000     4.474000000    -0.244000000
O     2.665000000     2.052000000     2.641000000
H     3.470000000     2.547000000     2.488000000
H     2.886000000     1.448000000     3.350000000
O    -1.216000000     3.536000000    -5.089000000
H    -0.594000000     3.121000000    -4.492000000
H    -1.614000000     4.236000000    -4.571000000
O    -1.854000000     1.572000000    -7.028000000
H    -1.489000000     2.340000000    -6.588000000
H    -1.604000000     0.835000000    -6.470000000
O    -0.901000000     5.130000000     6.729000000
H    -1.767000000     5.329000000     7.084000000
H    -1.075000000     4.779000000     5.856000000
O     2.568000000    -3.023000000    -1.907000000
H     3.214000000    -2.330000000    -1.769000000
H     2.487000000    -3.448000000    -1.054000000
O     1.983000000     2.043000000    -0.281000000
H     2.168000000     1.895000000     0.646000000
H     1.350000000     1.363000000    -0.511000000
O    -4.383000000     0.523000000    -3.217000000
H    -4.928000000     0.276000000    -2.470000000
H    -3.726000000    -0.170000000    -3.274000000
O     1.522000000    -1.864000000    -6.096000000
H     2.181000000    -1.298000000    -5.693000000
H     1.987000000    -2.682000000    -6.275000000
O    -5.734000000     3.838000000     5.279000000
H    -5.379000000     4.161000000     4.450000000
H    -6.345000000     4.520000000     5.559000000
O    -0.659000000     5.840000000    -1.101000000
H     0.003000000     5.201000000    -1.363000000
H    -0.670000000     5.796000000    -0.145000000
O    -4.349000000     2.201000000     2.961000000
H    -3.456000000     2.086000000     2.638000000
H    -4.820000000     1.431000000     2.644000000
O    -2.727000000    -4.712000000    -1.441000000
H    -2.376000000    -4.013000000    -0.891000000
H    -2.054000000    -4.855000000    -2.106000000
O     3.630000000    -1.128000000    -4.543000000
H     4.444000000    -1.483000000    -4.900000000
H     3.634000000    -1.398000000    -3.624000000
O     1.418000000     3.951000000    -1.912000000
H     1.851000000     3.338000000    -1.318000000
H     1.034000000     3.395000000    -2.590000000
O     0.195000000    -5.938000000    -0.809000000
H    -0.197000000    -5.343000000    -1.448000000
H     1.080000000    -6.094000000    -1.139000000
O    -0.548000000    -3.674000000    -2.911000000
H     0.101000000    -2.983000000    -2.781000000
H    -0.159000000    -4.245000000    -3.573000000
O    -4.688000000     2.965000000    -2.314000000
H    -4.962000000     2.654000000    -1.451000000
H    -4.613000000     2.170000000    -2.842000000
O     2.709000000    -4.063000000     0.532000000
H     2.021000000    -4.551000000     0.984000000
H     3.523000000    -4.483000000     0.809000000
O    -3.761000000    -0.606000000     7.158000000
H    -3.870000000    -0.175000000     6.311000000
H    -4.027000000     0.054000000     7.799000000
O    -2.047000000     4.124000000     4.419000000
H    -1.908000000     3.358000000     3.861000000
H    -2.973000000     4.339000000     4.303000000
O    -5.008000000    -0.760000000     1.334000000
H    -4.905000000    -1.611000000     0.909000000
H    -5.144000000    -0.969000000     2.259000000
O    -0.995000000    -3.782000000     2.743000000
H    -1.125000000    -4.684000000     2.452000000
H    -0.132000000    -3.786000000     3.157000000
O    -3.035000000     1.298000000     5.325000000
H    -3.532000000     1.621000000     4.573000000
H    -2.198000000     1.017000000     4.956000000
