158
-3020.11097
C     0.603000000    -0.207000000     1.371000000
H     1.058000000    -0.191000000     2.358000000
C     1.305000000     0.050000000     0.189000000
H     2.386000000     0.153000000     0.155000000
C     0.645000000     0.122000000    -1.022000000
H     1.156000000     0.318000000    -1.912000000
C    -0.717000000    -0.044000000    -1.130000000
H    -1.252000000     0.108000000    -2.064000000
C    -1.398000000    -0.339000000     0.040000000
H    -2.481000000    -0.438000000     0.024000000
C    -0.748000000    -0.419000000     1.267000000
C    -1.602000000    -0.569000000     2.517000000
O    -1.106000000    -0.438000000     3.656000000
O    -2.814000000    -0.768000000     2.493000000
O    -1.794000000     0.291000000    -4.745000000
H    -1.754000000     0.766000000    -5.575000000
H    -0.937000000    -0.126000000    -4.665000000
O     2.920000000    -2.169000000    -4.836000000
H     2.124000000    -2.696000000    -4.896000000
H     3.566000000    -2.753000000    -4.439000000
O     2.093000000    -5.215000000     2.910000000
H     1.694000000    -4.445000000     3.315000000
H     1.432000000    -5.901000000     2.996000000
O    -1.803000000    -2.685000000    -3.090000000
H    -2.313000000    -3.228000000    -2.489000000
H    -1.382000000    -2.035000000    -2.527000000
O     3.345000000     1.171000000     4.496000000
H     2.992000000     0.307000000     4.284000000
H     4.249000000     1.002000000     4.762000000
O    -1.853000000    -1.104000000     7.497000000
H    -2.559000000    -0.483000000     7.319000000
H    -1.114000000    -0.781000000     6.981000000
O     4.404000000    -2.261000000    -0.611000000
H     4.622000000    -1.584000000     0.029000000
H     3.807000000    -2.847000000    -0.146000000
O     5.013000000     2.150000000     0.977000000
H     4.961000000     1.195000000     1.002000000
H     5.941000000     2.336000000     0.833000000
O    -0.259000000     3.989000000     3.178000000
H    -0.221000000     3.641000000     2.287000000
H     0.511000000     4.553000000     3.247000000
O     2.349000000     3.121000000    -0.610000000
H     2.931000000     3.226000000     0.142000000
H     1.469000000     3.124000000    -0.233000000
O    -7.875000000    -0.329000000     0.935000000
H    -7.221000000    -0.921000000     1.306000000
H    -8.699000000    -0.811000000     1.000000000
O    -2.595000000     4.433000000    -2.787000000
H    -2.895000000     3.781000000    -2.153000000
H    -1.701000000     4.166000000    -3.000000000
O    -5.228000000    -2.437000000    -0.372000000
H    -5.269000000    -2.396000000     0.584000000
H    -5.763000000    -1.701000000    -0.666000000
O     2.206000000    -2.090000000     7.668000000
H     1.844000000    -1.915000000     6.799000000
H     2.478000000    -1.232000000     7.991000000
O     0.398000000    -0.484000000     5.956000000
H    -0.007000000    -0.427000000     5.091000000
H     1.084000000     0.183000000     5.945000000
O    -6.645000000     2.148000000     1.045000000
H    -6.910000000     1.233000000     0.957000000
H    -5.827000000     2.209000000     0.551000000
O    -2.187000000    -2.619000000     4.782000000
H    -2.358000000    -2.625000000     3.841000000
H    -1.867000000    -1.736000000     4.963000000
O     6.604000000    -1.855000000    -2.360000000
H     5.958000000    -1.946000000    -1.659000000
H     6.133000000    -2.105000000    -3.154000000
O     5.157000000    -0.452000000     1.414000000
H     6.091000000    -0.544000000     1.607000000
H     4.720000000    -0.667000000     2.238000000
O    -1.811000000    -2.516000000    -5.937000000
H    -1.488000000    -2.118000000    -5.129000000
H    -2.422000000    -3.191000000    -5.644000000
O     3.825000000     4.205000000    -5.159000000
H     3.835000000     4.939000000    -4.545000000
H     3.748000000     3.429000000    -4.605000000
O     0.863000000    -3.482000000     4.634000000
H     0.992000000    -4.329000000     5.060000000
H     0.044000000    -3.150000000     5.001000000
O    -3.652000000    -0.052000000     5.851000000
H    -3.229000000     0.764000000     5.585000000
H    -3.593000000    -0.616000000     5.080000000
O     0.218000000    -3.470000000    -0.107000000
H     0.338000000    -2.535000000     0.056000000
H     1.107000000    -3.817000000    -0.179000000
O    -5.809000000    -1.747000000     2.411000000
H    -5.016000000    -1.211000000     2.404000000
H    -5.920000000    -2.000000000     3.327000000
O    -3.874000000     1.737000000     1.795000000
H    -4.276000000     2.173000000     2.546000000
H    -3.602000000     0.883000000     2.131000000
O     1.343000000     2.483000000     5.686000000
H     0.850000000     3.068000000     5.111000000
H     1.956000000     2.035000000     5.103000000
O     2.861000000     2.583000000    -3.379000000
H     3.612000000     1.990000000    -3.411000000
H     2.613000000     2.606000000    -2.454000000
O    -4.822000000    -1.812000000    -3.856000000
H    -3.957000000    -2.142000000    -3.613000000
H    -5.145000000    -2.439000000    -4.504000000
O     5.441000000     1.180000000    -3.263000000
H     6.226000000     1.679000000    -3.038000000
H     5.758000000     0.290000000    -3.418000000
O    -0.216000000     3.010000000     0.503000000
H    -0.197000000     2.094000000     0.228000000
H    -0.678000000     3.463000000    -0.202000000
O    -3.320000000    -4.093000000    -1.315000000
H    -4.054000000    -3.488000000    -1.214000000
H    -3.679000000    -4.948000000    -1.078000000
O    -0.145000000     3.286000000    -3.881000000
H     0.695000000     3.148000000    -3.442000000
H    -0.154000000     2.641000000    -4.589000000
O     1.024000000    -0.090000000    -6.065000000
H     1.038000000    -0.548000000    -6.905000000
H     1.868000000    -0.299000000    -5.664000000
O    -3.262000000     3.269000000    -0.296000000
H    -3.371000000     2.706000000     0.470000000
H    -4.123000000     3.274000000    -0.714000000
O    -1.446000000     3.177000000     6.878000000
H    -1.237000000     2.620000000     6.128000000
H    -2.402000000     3.187000000     6.911000000
O    -3.713000000     4.189000000     3.735000000
H    -3.181000000     3.494000000     4.121000000
H    -4.606000000     3.845000000     3.754000000
O     1.090000000     5.947000000    -4.587000000
H     0.880000000     5.912000000    -5.520000000
H     1.486000000     5.096000000    -4.399000000
O     5.664000000    -1.303000000    -5.256000000
H     4.796000000    -1.660000000    -5.065000000
H     5.581000000    -0.931000000    -6.135000000
O    -2.713000000    -3.539000000     1.695000000
H    -2.771000000    -2.584000000     1.708000000
H    -2.561000000    -3.757000000     0.775000000
O     3.131000000    -1.947000000     3.842000000
H     2.252000000    -2.250000000     4.070000000
H     3.685000000    -2.255000000     4.559000000
O     5.392000000     4.188000000    -1.968000000
H     5.060000000     4.703000000    -2.704000000
H     4.747000000     3.492000000    -1.852000000
O    -4.377000000     1.296000000    -3.947000000
H    -4.939000000     1.069000000    -4.688000000
H    -3.676000000     0.645000000    -3.971000000
O    -1.643000000     1.997000000     4.418000000
H    -1.331000000     1.236000000     3.927000000
H    -1.159000000     2.735000000     4.048000000
O     0.256000000     2.343000000    -6.244000000
H     0.650000000     1.492000000    -6.435000000
H     0.401000000     2.858000000    -7.037000000
O    -4.204000000    -5.668000000     2.295000000
H    -4.845000000    -5.647000000     1.585000000
H    -3.703000000    -4.859000000     2.190000000
O    -6.380000000    -0.561000000    -1.957000000
H    -7.000000000    -0.084000000    -2.509000000
H    -5.693000000    -0.847000000    -2.560000000
O    -5.634000000     1.867000000     4.595000000
H    -5.647000000     1.145000000     5.223000000
H    -6.518000000     1.883000000     4.230000000
