158
-3027.40934
C    -1.381000000     0.358000000     0.409000000
H    -2.303000000     0.808000000     0.766000000
C    -0.210000000     0.697000000     1.108000000
H    -0.197000000     1.387000000     1.947000000
C     0.978000000     0.189000000     0.655000000
H     1.882000000     0.502000000     1.193000000
C     1.051000000    -0.612000000    -0.485000000
H     2.048000000    -0.864000000    -0.836000000
C    -0.067000000    -0.863000000    -1.215000000
H    -0.018000000    -1.383000000    -2.168000000
C    -1.316000000    -0.391000000    -0.765000000
C    -2.592000000    -0.540000000    -1.603000000
O    -2.591000000    -1.281000000    -2.584000000
O    -3.564000000     0.029000000    -1.261000000
O    -4.398000000    -3.061000000    -3.572000000
H    -3.915000000    -2.326000000    -3.196000000
H    -5.312000000    -2.891000000    -3.341000000
O    -0.023000000     5.723000000     0.373000000
H     0.791000000     6.158000000     0.629000000
H    -0.713000000     6.252000000     0.771000000
O     4.273000000    -0.518000000     1.657000000
H     4.738000000    -0.710000000     0.843000000
H     3.666000000    -1.250000000     1.764000000
O    -2.849000000     1.545000000     3.687000000
H    -2.659000000     2.397000000     3.296000000
H    -3.285000000     1.054000000     2.991000000
O     0.582000000     4.324000000     3.138000000
H     0.450000000     4.917000000     3.878000000
H     1.124000000     4.822000000     2.526000000
O    -0.863000000     1.522000000     5.777000000
H    -0.040000000     2.012000000     5.752000000
H    -1.288000000     1.726000000     4.944000000
O    -4.690000000    -1.222000000     0.953000000
H    -5.203000000    -0.508000000     1.331000000
H    -4.410000000    -0.890000000     0.100000000
O    -5.895000000     1.141000000     2.121000000
H    -6.473000000     0.723000000     2.760000000
H    -5.630000000     1.961000000     2.538000000
O    -0.559000000    -3.283000000    -5.952000000
H    -0.521000000    -3.259000000    -4.996000000
H    -1.330000000    -3.815000000    -6.148000000
O     5.693000000    -3.781000000     1.288000000
H     5.136000000    -4.460000000     0.907000000
H     5.304000000    -3.605000000     2.145000000
O    -7.757000000     1.265000000    -0.161000000
H    -7.173000000     1.182000000     0.593000000
H    -7.456000000     0.592000000    -0.772000000
O     4.552000000    -3.422000000     3.826000000
H     4.512000000    -4.016000000     4.576000000
H     4.702000000    -2.559000000     4.212000000
O     1.798000000    -2.521000000     2.903000000
H     0.870000000    -2.615000000     2.689000000
H     2.167000000    -3.392000000     2.758000000
O    -4.837000000     1.184000000    -3.822000000
H    -5.170000000     0.728000000    -3.049000000
H    -3.885000000     1.114000000    -3.751000000
O    -2.935000000    -4.683000000    -5.546000000
H    -3.223000000    -4.337000000    -4.701000000
H    -3.636000000    -4.447000000    -6.154000000
O     3.899000000    -1.133000000    -4.063000000
H     3.353000000    -0.862000000    -4.801000000
H     3.421000000    -1.862000000    -3.668000000
O    -1.313000000    -1.050000000     4.496000000
H    -0.834000000    -0.260000000     4.746000000
H    -2.228000000    -0.848000000     4.692000000
O    -7.785000000     0.336000000    -4.056000000
H    -7.563000000     0.369000000    -3.126000000
H    -6.961000000     0.117000000    -4.491000000
O     7.449000000     2.247000000     2.074000000
H     6.521000000     2.136000000     2.278000000
H     7.461000000     2.526000000     1.159000000
O     1.501000000     4.346000000    -1.976000000
H     1.123000000     3.525000000    -2.290000000
H     0.915000000     4.626000000    -1.273000000
O     4.015000000     1.528000000    -2.797000000
H     4.257000000     0.602000000    -2.798000000
H     4.652000000     1.943000000    -3.378000000
O     2.391000000    -0.495000000     4.865000000
H     2.224000000    -1.300000000     4.375000000
H     2.196000000     0.208000000     4.245000000
O    -3.864000000    -0.224000000     5.489000000
H    -3.522000000     0.596000000     5.132000000
H    -4.750000000    -0.289000000     5.134000000
O     5.161000000    -1.360000000    -0.815000000
H     5.943000000    -1.741000000    -0.417000000
H     5.035000000    -1.861000000    -1.621000000
O     4.187000000     2.306000000    -0.263000000
H     4.208000000     2.004000000    -1.171000000
H     4.265000000     1.507000000     0.257000000
O    -2.557000000    -0.235000000    -5.044000000
H    -2.438000000    -0.486000000    -4.128000000
H    -3.059000000    -0.954000000    -5.426000000
O     4.660000000    -3.528000000    -2.536000000
H     4.329000000    -4.226000000    -3.101000000
H     4.535000000    -3.859000000    -1.647000000
O    -1.853000000    -3.603000000    -0.450000000
H    -2.574000000    -3.131000000    -0.867000000
H    -1.961000000    -3.427000000     0.485000000
O    -5.255000000     3.324000000     3.533000000
H    -5.432000000     4.219000000     3.243000000
H    -4.922000000     3.423000000     4.425000000
O    -1.844000000     3.730000000     2.515000000
H    -0.943000000     4.005000000     2.682000000
H    -2.186000000     4.384000000     1.906000000
O    -4.835000000     2.293000000    -1.101000000
H    -5.077000000     2.092000000    -0.197000000
H    -4.199000000     1.617000000    -1.335000000
O    -1.940000000    -2.513000000     2.178000000
H    -1.948000000    -1.661000000     1.741000000
H    -1.801000000    -2.307000000     3.102000000
O     5.517000000    -0.309000000     4.360000000
H     5.446000000     0.268000000     3.600000000
H     4.620000000    -0.390000000     4.684000000
O     4.655000000     2.668000000     2.602000000
H     4.873000000     3.577000000     2.807000000
H     4.326000000     2.696000000     1.704000000
O    -0.842000000    -6.358000000    -0.583000000
H    -1.494000000    -6.550000000    -1.257000000
H    -0.665000000    -5.422000000    -0.682000000
O    -5.848000000     4.333000000    -2.429000000
H    -6.793000000     4.458000000    -2.343000000
H    -5.665000000     3.538000000    -1.929000000
O     1.874000000     1.904000000     3.435000000
H     2.728000000     2.098000000     3.047000000
H     1.312000000     2.624000000     3.149000000
O     4.141000000     5.389000000    -1.926000000
H     3.469000000     4.718000000    -2.046000000
H     4.354000000     5.351000000    -0.994000000
O    -6.408000000    -0.508000000    -1.555000000
H    -6.551000000    -1.383000000    -1.917000000
H    -5.458000000    -0.441000000    -1.458000000
O     2.394000000    -3.101000000    -5.955000000
H     2.569000000    -2.796000000    -6.846000000
H     1.442000000    -3.191000000    -5.916000000
O     1.631000000     0.438000000    -4.875000000
H     0.950000000     0.659000000    -4.240000000
H     2.240000000     1.176000000    -4.840000000
O    -0.716000000     1.408000000    -6.322000000
H    -1.276000000     0.806000000    -5.832000000
H     0.160000000     1.027000000    -6.256000000
O    -1.910000000     4.845000000    -1.349000000
H    -1.088000000     4.670000000    -0.891000000
H    -2.345000000     5.508000000    -0.813000000
O    -0.039000000     2.625000000    -3.800000000
H    -0.212000000     2.088000000    -4.573000000
H    -0.907000000     2.874000000    -3.482000000
O     3.449000000    -5.015000000     0.060000000
H     2.833000000    -4.830000000     0.769000000
H     2.964000000    -5.587000000    -0.535000000
O    -1.001000000    -3.346000000    -3.238000000
H    -0.720000000    -3.585000000    -2.355000000
H    -1.666000000    -2.671000000    -3.104000000
O    -2.611000000     3.611000000    -3.463000000
H    -3.554000000     3.510000000    -3.337000000
H    -2.316000000     4.097000000    -2.693000000
O    -7.029000000    -2.843000000     0.836000000
H    -6.089000000    -2.664000000     0.856000000
H    -7.200000000    -3.322000000     1.647000000
