158
-3043.71725
C     0.730000000    -0.152000000     1.290000000
H     1.335000000    -0.058000000     2.188000000
C     1.318000000     0.047000000     0.062000000
H     2.371000000     0.285000000    -0.069000000
C     0.562000000     0.210000000    -1.095000000
H     0.944000000     0.597000000    -2.048000000
C    -0.859000000    -0.044000000    -0.967000000
H    -1.472000000     0.009000000    -1.864000000
C    -1.429000000    -0.342000000     0.262000000
H    -2.484000000    -0.576000000     0.377000000
C    -0.617000000    -0.350000000     1.392000000
C    -1.257000000    -0.481000000     2.737000000
O    -0.544000000    -0.428000000     3.707000000
O    -2.475000000    -0.647000000     2.741000000
O     3.426000000     1.159000000    -3.944000000
H     4.368000000     1.307000000    -4.033000000
H     3.126000000     0.987000000    -4.837000000
O     3.595000000     1.221000000     1.942000000
H     4.104000000     0.428000000     2.112000000
H     3.046000000     1.324000000     2.719000000
O     2.140000000     3.521000000     1.151000000
H     2.581000000     2.671000000     1.160000000
H     1.392000000     3.409000000     1.737000000
O     0.875000000    -2.138000000     5.005000000
H     0.584000000    -1.477000000     4.377000000
H     0.136000000    -2.741000000     5.078000000
O    -4.977000000    -0.533000000     2.052000000
H    -4.064000000    -0.566000000     2.336000000
H    -5.380000000    -1.303000000     2.455000000
O    -5.065000000     0.945000000     4.506000000
H    -5.150000000     0.219000000     3.888000000
H    -5.860000000     1.462000000     4.379000000
O     6.665000000     0.852000000     1.979000000
H     6.257000000    -0.012000000     1.938000000
H     6.695000000     1.147000000     1.069000000
O     0.264000000     1.092000000    -5.696000000
H     1.157000000     0.903000000    -5.984000000
H    -0.161000000     0.235000000    -5.651000000
O     6.565000000     0.559000000    -1.218000000
H     7.358000000     0.306000000    -0.746000000
H     6.431000000    -0.143000000    -1.855000000
O     3.714000000     5.069000000    -1.314000000
H     3.946000000     4.555000000    -0.540000000
H     2.953000000     4.619000000    -1.681000000
O     1.342000000     1.873000000     3.781000000
H     1.242000000     2.216000000     4.669000000
H     0.649000000     1.219000000     3.697000000
O    -1.879000000     2.482000000     0.826000000
H    -1.165000000     1.873000000     0.639000000
H    -2.191000000     2.225000000     1.694000000
O    -5.474000000    -3.039000000     3.478000000
H    -6.388000000    -3.129000000     3.208000000
H    -5.162000000    -3.939000000     3.569000000
O    -3.940000000    -2.955000000    -1.081000000
H    -3.689000000    -2.752000000    -1.982000000
H    -4.531000000    -2.245000000    -0.832000000
O     1.398000000     3.230000000    -1.607000000
H     1.654000000     2.316000000    -1.477000000
H     1.558000000     3.646000000    -0.761000000
O     0.210000000    -4.824000000     1.339000000
H    -0.666000000    -4.633000000     1.673000000
H     0.297000000    -4.267000000     0.565000000
O     5.250000000    -1.408000000     1.392000000
H     5.003000000    -1.679000000     0.508000000
H     4.498000000    -1.646000000     1.935000000
O    -6.302000000     1.772000000     1.741000000
H    -5.846000000     0.986000000     2.041000000
H    -5.864000000     2.007000000     0.923000000
O    -2.075000000    -3.057000000     1.853000000
H    -2.226000000    -2.226000000     2.305000000
H    -2.942000000    -3.460000000     1.798000000
O    -1.886000000    -1.504000000     7.540000000
H    -2.012000000    -0.587000000     7.295000000
H    -2.342000000    -1.999000000     6.860000000
O    -1.572000000    -4.523000000    -1.639000000
H    -0.830000000    -3.975000000    -1.386000000
H    -2.298000000    -4.206000000    -1.103000000
O     3.311000000    -3.821000000     1.615000000
H     3.652000000    -3.561000000     0.760000000
H     2.438000000    -4.166000000     1.430000000
O     0.964000000    -3.150000000    -0.693000000
H     1.812000000    -3.208000000    -1.132000000
H     0.723000000    -2.226000000    -0.757000000
O     3.284000000    -1.404000000    -3.189000000
H     2.405000000    -1.613000000    -3.504000000
H     3.342000000    -0.451000000    -3.256000000
O    -1.542000000     0.862000000     5.928000000
H    -0.694000000     1.131000000     6.281000000
H    -1.326000000     0.239000000     5.234000000
O     4.474000000     2.636000000    -0.362000000
H     4.901000000     1.984000000    -0.917000000
H     4.393000000     2.209000000     0.490000000
O    -3.457000000     2.970000000    -4.162000000
H    -2.517000000     2.799000000    -4.234000000
H    -3.811000000     2.726000000    -5.018000000
O    -5.478000000    -0.994000000    -4.757000000
H    -4.546000000    -0.828000000    -4.620000000
H    -5.543000000    -1.946000000    -4.833000000
O    -5.049000000    -0.157000000    -0.922000000
H    -4.855000000    -0.270000000     0.009000000
H    -4.748000000     0.729000000    -1.124000000
O     3.869000000    -0.244000000     5.991000000
H     3.406000000     0.589000000     6.071000000
H     3.746000000    -0.669000000     6.840000000
O     3.645000000    -1.964000000     3.994000000
H     3.652000000    -1.399000000     4.766000000
H     2.926000000    -2.576000000     4.151000000
O     3.011000000     3.851000000    -5.160000000
H     3.011000000     3.175000000    -4.482000000
H     3.801000000     4.363000000    -4.987000000
O     5.352000000    -2.833000000    -4.243000000
H     6.026000000    -2.391000000    -3.727000000
H     4.543000000    -2.365000000    -4.032000000
O     3.982000000     4.370000000     3.274000000
H     4.788000000     4.108000000     2.830000000
H     3.283000000     3.961000000     2.763000000
O    -1.250000000    -3.808000000     5.206000000
H    -2.137000000    -3.531000000     4.975000000
H    -0.979000000    -4.371000000     4.481000000
O    -0.939000000     2.532000000    -3.586000000
H    -0.398000000     2.275000000    -4.333000000
H    -0.324000000     2.939000000    -2.975000000
O     2.988000000     0.744000000    -6.514000000
H     2.498000000     0.040000000    -6.939000000
H     3.892000000     0.614000000    -6.802000000
O    -6.601000000    -1.746000000    -2.353000000
H    -6.171000000    -1.165000000    -1.725000000
H    -6.310000000    -1.431000000    -3.209000000
O    -2.996000000    -0.170000000    -3.967000000
H    -3.090000000     0.751000000    -3.721000000
H    -2.070000000    -0.264000000    -4.191000000
O    -0.743000000    -1.411000000    -5.867000000
H    -0.475000000    -2.321000000    -5.746000000
H    -1.611000000    -1.468000000    -6.266000000
O     0.859000000    -2.214000000    -3.998000000
H     0.371000000    -3.034000000    -3.921000000
H     0.339000000    -1.681000000    -4.599000000
O     0.951000000    -0.866000000     7.356000000
H     0.104000000    -0.568000000     7.688000000
H     0.764000000    -1.187000000     6.474000000
O     1.191000000     2.158000000     6.331000000
H     0.542000000     2.751000000     6.708000000
H     1.920000000     2.176000000     6.950000000
O    -2.898000000     2.575000000     3.405000000
H    -2.235000000     3.066000000     3.891000000
H    -3.296000000     1.999000000     4.057000000
O     4.298000000    -2.453000000    -0.964000000
H     4.836000000    -3.147000000    -1.345000000
H     3.994000000    -1.945000000    -1.716000000
O    -4.647000000     2.577000000    -0.618000000
H    -4.655000000     3.307000000    -1.238000000
H    -3.808000000     2.657000000    -0.165000000
O    -3.499000000    -1.887000000     4.942000000
H    -3.125000000    -1.319000000     4.269000000
H    -4.205000000    -2.355000000     4.496000000
O    -3.517000000     1.787000000     7.479000000
H    -3.950000000     2.570000000     7.138000000
H    -2.821000000     1.605000000     6.847000000
