158
-3036.12262
C     1.184000000    -0.414000000     0.785000000
H     2.140000000    -0.684000000     1.225000000
C     0.686000000    -1.055000000    -0.351000000
H     1.235000000    -1.859000000    -0.834000000
C    -0.361000000    -0.554000000    -1.083000000
H    -0.753000000    -0.974000000    -2.023000000
C    -1.086000000     0.497000000    -0.569000000
H    -2.029000000     0.784000000    -1.026000000
C    -0.590000000     1.196000000     0.600000000
H    -1.099000000     2.094000000     0.941000000
C     0.535000000     0.723000000     1.290000000
C     1.092000000     1.553000000     2.432000000
O     2.056000000     1.132000000     3.071000000
O     0.547000000     2.584000000     2.709000000
O     4.050000000     5.400000000     3.005000000
H     4.984000000     5.308000000     2.820000000
H     4.006000000     6.060000000     3.697000000
O    -1.595000000    -3.446000000    -0.402000000
H    -1.185000000    -2.899000000     0.269000000
H    -1.266000000    -4.327000000    -0.226000000
O    -1.855000000    -2.131000000    -7.323000000
H    -1.674000000    -3.067000000    -7.410000000
H    -1.369000000    -1.865000000    -6.543000000
O     7.615000000    -0.171000000     0.179000000
H     7.452000000    -0.132000000    -0.763000000
H     6.767000000    -0.399000000     0.560000000
O    -4.100000000     2.946000000     5.338000000
H    -3.372000000     2.972000000     4.718000000
H    -4.020000000     2.094000000     5.766000000
O    -1.490000000     0.566000000    -4.584000000
H    -1.124000000    -0.303000000    -4.750000000
H    -0.869000000     0.976000000    -3.983000000
O     3.368000000    -3.162000000     4.732000000
H     3.094000000    -3.900000000     4.188000000
H     2.651000000    -2.531000000     4.658000000
O    -1.075000000    -4.644000000    -6.342000000
H    -0.747000000    -5.044000000    -5.537000000
H    -0.493000000    -4.972000000    -7.027000000
O    -6.412000000    -1.300000000    -3.910000000
H    -5.704000000    -1.005000000    -4.483000000
H    -6.648000000    -2.164000000    -4.247000000
O     3.142000000    -0.501000000     7.147000000
H     3.693000000     0.273000000     7.037000000
H     2.454000000    -0.402000000     6.488000000
O    -0.233000000     4.815000000     4.340000000
H     0.024000000     4.253000000     3.609000000
H    -1.038000000     5.239000000     4.043000000
O     4.194000000     1.874000000     6.784000000
H     3.794000000     2.449000000     6.132000000
H     4.855000000     2.420000000     7.211000000
O     0.601000000    -5.576000000    -0.825000000
H     1.159000000    -4.811000000    -0.680000000
H     1.140000000    -6.320000000    -0.556000000
O    -2.091000000     2.658000000     3.277000000
H    -1.922000000     1.858000000     3.775000000
H    -1.301000000     2.783000000     2.750000000
O    -5.517000000     3.039000000    -3.333000000
H    -4.575000000     3.137000000    -3.471000000
H    -5.757000000     2.273000000    -3.855000000
O     2.561000000    -2.011000000    -4.805000000
H     2.913000000    -1.156000000    -5.050000000
H     1.644000000    -1.840000000    -4.588000000
O    -4.263000000    -0.441000000    -1.999000000
H    -4.949000000    -0.470000000    -2.666000000
H    -3.660000000    -1.141000000    -2.245000000
O     4.283000000     1.010000000    -0.746000000
H     3.420000000     0.700000000    -1.021000000
H     4.186000000     1.194000000     0.188000000
O    -3.430000000    -0.054000000     5.618000000
H    -3.253000000     0.026000000     4.681000000
H    -3.884000000    -0.892000000     5.706000000
O    -0.657000000    -2.143000000    -4.840000000
H    -1.253000000    -2.105000000    -4.092000000
H    -0.761000000    -3.029000000    -5.185000000
O    -4.277000000    -4.244000000     1.277000000
H    -3.562000000    -4.096000000     0.658000000
H    -3.900000000    -4.814000000     1.946000000
O     4.464000000     1.113000000     1.971000000
H     5.122000000     1.369000000     2.618000000
H     3.627000000     1.248000000     2.415000000
O    -4.121000000    -0.448000000    -5.028000000
H    -4.124000000    -0.636000000    -5.967000000
H    -3.225000000    -0.168000000    -4.843000000
O     5.578000000     0.836000000     4.836000000
H     5.412000000    -0.096000000     4.980000000
H     5.066000000     1.279000000     5.513000000
O     0.317000000     1.755000000    -3.169000000
H     0.894000000     2.495000000    -2.982000000
H    -0.038000000     1.507000000    -2.315000000
O    -1.277000000    -7.135000000    -1.985000000
H    -0.533000000    -6.601000000    -1.707000000
H    -1.104000000    -7.999000000    -1.612000000
O    -6.093000000     0.035000000     0.195000000
H    -6.541000000    -0.804000000     0.088000000
H    -5.467000000     0.066000000    -0.528000000
O     3.245000000     3.326000000     4.482000000
H     3.654000000     3.818000000     3.769000000
H     2.844000000     2.571000000     4.053000000
O     0.193000000     4.372000000    -0.940000000
H     0.982000000     4.514000000    -1.464000000
H     0.512000000     4.296000000    -0.041000000
O    -3.491000000     3.573000000     1.111000000
H    -2.838000000     3.352000000     1.775000000
H    -4.323000000     3.292000000     1.490000000
O     2.344000000     2.753000000    -5.235000000
H     1.650000000     2.094000000    -5.250000000
H     2.349000000     3.074000000    -4.333000000
O     1.469000000    -0.990000000     4.689000000
H     1.895000000    -0.340000000     4.130000000
H     0.636000000    -0.586000000     4.934000000
O     2.837000000    -4.970000000     2.499000000
H     2.895000000    -5.069000000     1.549000000
H     3.738000000    -5.071000000     2.806000000
O    -0.094000000    -5.769000000    -4.012000000
H     0.678000000    -5.998000000    -3.494000000
H    -0.809000000    -6.258000000    -3.606000000
O    -3.380000000     6.612000000     1.221000000
H    -3.421000000     5.706000000     0.914000000
H    -3.254000000     6.539000000     2.167000000
O     3.183000000    -4.043000000    -0.188000000
H     3.498000000    -3.434000000    -0.857000000
H     3.922000000    -4.631000000    -0.033000000
O    -3.935000000    -5.025000000    -2.132000000
H    -4.034000000    -5.284000000    -3.048000000
H    -4.573000000    -5.560000000    -1.661000000
O    -2.446000000     3.864000000    -1.394000000
H    -1.615000000     4.129000000    -0.999000000
H    -3.032000000     3.728000000    -0.649000000
O    -2.652000000    -2.658000000    -2.866000000
H    -2.031000000    -2.810000000    -2.154000000
H    -3.283000000    -3.374000000    -2.792000000
O    -0.833000000    -2.525000000     2.146000000
H    -0.211000000    -1.886000000     2.493000000
H    -0.485000000    -3.373000000     2.423000000
O     4.762000000    -2.145000000    -1.788000000
H     4.235000000    -1.357000000    -1.922000000
H     4.980000000    -2.132000000    -0.856000000
O     1.781000000     4.188000000     1.186000000
H     2.407000000     4.603000000     1.779000000
H     1.260000000     3.616000000     1.750000000
O     5.188000000    -1.260000000     0.883000000
H     5.185000000    -1.937000000     1.559000000
H     4.930000000    -0.461000000     1.342000000
O    -3.137000000     5.772000000     3.888000000
H    -3.362000000     4.898000000     4.207000000
H    -3.907000000     6.305000000     4.087000000
O    -2.786000000    -0.508000000     2.954000000
H    -2.802000000     0.088000000     2.205000000
H    -2.226000000    -1.232000000     2.673000000
O     0.004000000     1.174000000     5.420000000
H     0.435000000     1.598000000     4.678000000
H    -0.113000000     1.874000000     6.061000000
O     1.587000000     5.372000000     6.231000000
H     0.817000000     5.391000000     5.663000000
H     2.285000000     5.023000000     5.676000000
O    -2.520000000     3.314000000    -3.921000000
H    -2.185000000     2.420000000    -3.859000000
H    -2.227000000     3.736000000    -3.113000000
