158
-3047.51610
C     0.295000000    -0.866000000     1.233000000
H     0.635000000    -1.509000000     2.041000000
C     0.358000000    -1.240000000    -0.108000000
H     0.798000000    -2.212000000    -0.315000000
C    -0.068000000    -0.416000000    -1.150000000
H    -0.136000000    -0.708000000    -2.208000000
C    -0.424000000     0.864000000    -0.894000000
H    -0.772000000     1.485000000    -1.715000000
C    -0.394000000     1.331000000     0.419000000
H    -0.632000000     2.375000000     0.605000000
C     0.007000000     0.504000000     1.524000000
C    -0.068000000     0.978000000     2.938000000
O     0.287000000     0.233000000     3.799000000
O    -0.457000000     2.108000000     3.216000000
O     1.259000000     4.124000000    -1.582000000
H     1.024000000     4.462000000    -0.718000000
H     2.208000000     4.008000000    -1.544000000
O     2.694000000    -0.337000000    -8.040000000
H     2.589000000     0.554000000    -7.705000000
H     2.443000000    -0.899000000    -7.307000000
O    -1.213000000    -5.046000000     1.091000000
H    -0.553000000    -5.080000000     0.398000000
H    -0.834000000    -4.469000000     1.754000000
O     1.723000000     3.697000000     3.766000000
H     0.983000000     3.091000000     3.806000000
H     1.329000000     4.563000000     3.869000000
O     3.665000000     2.911000000    -1.584000000
H     3.788000000     2.146000000    -2.146000000
H     4.220000000     2.741000000    -0.823000000
O    -5.377000000    -3.140000000    -3.496000000
H    -4.488000000    -2.791000000    -3.553000000
H    -5.942000000    -2.386000000    -3.667000000
O     1.009000000    -1.482000000     5.819000000
H     0.668000000    -1.001000000     5.065000000
H     1.152000000    -0.810000000     6.486000000
O     3.830000000    -3.245000000     0.967000000
H     3.086000000    -3.324000000     1.564000000
H     4.116000000    -2.336000000     1.059000000
O    -3.320000000     1.957000000     3.274000000
H    -2.371000000     2.009000000     3.392000000
H    -3.469000000     2.291000000     2.389000000
O    -4.749000000     0.697000000     5.340000000
H    -4.646000000     1.047000000     4.455000000
H    -5.664000000     0.421000000     5.383000000
O    -3.696000000    -1.940000000    -5.373000000
H    -3.862000000    -0.997000000    -5.345000000
H    -3.128000000    -2.105000000    -4.621000000
O    -0.978000000    -3.510000000     3.451000000
H    -1.350000000    -3.731000000     4.305000000
H    -1.439000000    -2.714000000     3.187000000
O    -3.393000000    -1.375000000     6.354000000
H    -4.060000000    -1.203000000     7.019000000
H    -3.671000000    -0.861000000     5.597000000
O     1.616000000    -3.888000000     2.487000000
H     0.683000000    -3.855000000     2.697000000
H     2.047000000    -3.511000000     3.254000000
O     1.676000000    -0.191000000    -5.295000000
H     0.905000000     0.293000000    -5.591000000
H     2.269000000     0.483000000    -4.963000000
O    -4.571000000     4.894000000     3.667000000
H    -3.728000000     4.606000000     3.318000000
H    -4.417000000     5.795000000     3.952000000
O     0.121000000     0.594000000     8.153000000
H    -0.487000000    -0.116000000     8.363000000
H     0.568000000     0.778000000     8.979000000
O    -2.703000000     5.357000000     0.199000000
H    -2.129000000     4.894000000    -0.411000000
H    -2.623000000     4.871000000     1.019000000
O     2.598000000     1.059000000     5.318000000
H     2.679000000     2.007000000     5.219000000
H     1.838000000     0.826000000     4.784000000
O     0.684000000     5.360000000     0.529000000
H     1.369000000     6.024000000     0.602000000
H    -0.134000000     5.855000000     0.564000000
O     4.707000000    -2.488000000    -4.441000000
H     3.897000000    -2.480000000    -4.950000000
H     4.421000000    -2.387000000    -3.533000000
O    -2.215000000    -2.546000000    -3.351000000
H    -1.344000000    -2.590000000    -3.744000000
H    -2.435000000    -3.456000000    -3.152000000
O    -5.235000000    -1.947000000    -0.982000000
H    -4.435000000    -1.523000000    -0.673000000
H    -4.939000000    -2.785000000    -1.338000000
O     0.456000000    -4.192000000     6.432000000
H    -0.434000000    -4.279000000     6.090000000
H     0.719000000    -3.303000000     6.192000000
O     2.177000000     4.608000000    -4.376000000
H     1.697000000     4.043000000    -3.770000000
H     2.567000000     5.281000000    -3.818000000
O    -3.742000000     1.659000000     0.664000000
H    -3.890000000     0.896000000     1.222000000
H    -3.145000000     1.347000000    -0.017000000
O     3.709000000    -0.582000000     1.295000000
H     3.082000000     0.105000000     1.520000000
H     4.447000000    -0.114000000     0.904000000
O     4.717000000    -0.339000000     4.185000000
H     4.022000000     0.094000000     4.681000000
H     4.456000000    -0.239000000     3.269000000
O     0.694000000    -2.390000000    -4.066000000
H     0.796000000    -1.724000000    -4.747000000
H     1.167000000    -2.036000000    -3.313000000
O    -1.039000000     1.866000000     6.131000000
H    -0.481000000     1.967000000     5.359000000
H    -0.531000000     1.310000000     6.722000000
O    -4.002000000     0.553000000    -3.089000000
H    -3.825000000    -0.233000000    -2.572000000
H    -4.755000000     0.318000000    -3.632000000
O    -5.703000000     3.450000000    -1.690000000
H    -5.042000000     2.758000000    -1.683000000
H    -6.494000000     3.028000000    -1.353000000
O    -2.874000000    -1.389000000     0.106000000
H    -2.046000000    -1.447000000    -0.371000000
H    -2.617000000    -1.254000000     1.018000000
O     0.877000000    -5.397000000    -0.491000000
H     0.934000000    -5.075000000    -1.390000000
H     1.710000000    -5.146000000    -0.092000000
O     3.277000000    -2.746000000     4.862000000
H     3.874000000    -2.044000000     4.602000000
H     2.515000000    -2.292000000     5.220000000
O    -0.685000000     5.360000000    -3.027000000
H    -0.244000000     4.511000000    -2.996000000
H    -0.263000000     5.875000000    -2.339000000
O     3.465000000     2.049000000     2.393000000
H     4.281000000     2.320000000     2.814000000
H     2.806000000     2.651000000     2.739000000
O    -1.897000000    -3.966000000    -6.471000000
H    -2.625000000    -3.661000000    -5.929000000
H    -2.314000000    -4.473000000    -7.168000000
O     4.073000000     1.254000000    -3.909000000
H     4.934000000     0.840000000    -3.855000000
H     4.121000000     1.808000000    -4.688000000
O    -2.457000000     2.418000000    -4.534000000
H    -3.146000000     3.058000000    -4.709000000
H    -2.928000000     1.618000000    -4.298000000
O    -2.668000000    -5.121000000    -2.678000000
H    -2.819000000    -5.905000000    -3.205000000
H    -3.406000000    -5.096000000    -2.068000000
O     1.401000000    -4.855000000    -3.347000000
H     0.817000000    -5.397000000    -3.878000000
H     1.328000000    -3.980000000    -3.728000000
O    -1.909000000     4.359000000     2.407000000
H    -1.395000000     4.881000000     3.023000000
H    -1.380000000     3.575000000     2.258000000
O     3.461000000    -2.303000000    -1.725000000
H     3.944000000    -2.779000000    -1.050000000
H     3.512000000    -1.386000000    -1.454000000
O    -2.193000000    -1.028000000     3.329000000
H    -1.564000000    -0.552000000     3.870000000
H    -2.988000000    -0.496000000     3.360000000
O    -1.023000000     5.510000000     4.684000000
H    -1.435000000     6.335000000     4.425000000
H    -1.729000000     5.008000000     5.093000000
O    -0.255000000     1.487000000    -5.986000000
H    -0.059000000     2.213000000    -6.578000000
H    -1.043000000     1.764000000    -5.520000000
O    -2.884000000     3.886000000     5.923000000
H    -3.708000000     3.591000000     5.536000000
H    -2.325000000     3.109000000     5.918000000
