158
-3004.06365
C     1.383000000    -0.484000000     0.324000000
H     2.334000000    -0.939000000     0.587000000
C     0.358000000    -1.236000000    -0.263000000
H     0.606000000    -2.259000000    -0.536000000
C    -0.876000000    -0.668000000    -0.576000000
H    -1.726000000    -1.197000000    -1.020000000
C    -1.019000000     0.665000000    -0.300000000
H    -1.964000000     1.147000000    -0.536000000
C    -0.048000000     1.377000000     0.365000000
H    -0.290000000     2.400000000     0.641000000
C     1.155000000     0.790000000     0.759000000
C     2.089000000     1.560000000     1.582000000
O     3.175000000     1.083000000     1.728000000
O     1.765000000     2.678000000     1.936000000
O     0.743000000    -4.312000000     3.930000000
H     0.282000000    -3.901000000     3.199000000
H     0.481000000    -3.800000000     4.695000000
O     1.333000000    -4.948000000    -0.125000000
H     1.065000000    -4.477000000     0.665000000
H     0.513000000    -5.259000000    -0.508000000
O     1.759000000     5.257000000     1.862000000
H     1.979000000     5.347000000     2.789000000
H     1.610000000     4.319000000     1.742000000
O     0.140000000    -0.428000000    -4.283000000
H     0.824000000    -1.039000000    -4.558000000
H     0.041000000     0.170000000    -5.024000000
O     5.601000000     2.429000000     2.675000000
H     4.665000000     2.507000000     2.488000000
H     5.656000000     2.454000000     3.630000000
O    -4.026000000     1.022000000     1.596000000
H    -3.158000000     1.125000000     1.988000000
H    -4.196000000     0.081000000     1.635000000
O    -0.630000000    -1.299000000     3.851000000
H    -0.634000000    -0.342000000     3.865000000
H    -0.093000000    -1.547000000     4.604000000
O     5.052000000    -2.121000000    -0.567000000
H     5.601000000    -2.806000000    -0.184000000
H     4.445000000    -1.882000000     0.133000000
O     4.473000000     1.053000000    -2.730000000
H     3.516000000     1.057000000    -2.700000000
H     4.740000000     1.444000000    -1.898000000
O     4.149000000     4.936000000     0.509000000
H     3.306000000     5.237000000     0.849000000
H     4.100000000     3.981000000     0.562000000
O    -4.787000000     0.829000000    -1.182000000
H    -5.174000000    -0.040000000    -1.293000000
H    -4.487000000     0.843000000    -0.273000000
O     5.066000000    -0.961000000     1.909000000
H     4.565000000    -0.146000000     1.896000000
H     5.967000000    -0.686000000     2.080000000
O     7.676000000    -0.357000000    -0.812000000
H     7.610000000     0.440000000    -1.338000000
H     6.794000000    -0.729000000    -0.830000000
O     0.578000000    -4.058000000    -4.543000000
H     0.748000000    -4.869000000    -4.065000000
H    -0.098000000    -4.292000000    -5.179000000
O     3.658000000     6.118000000     4.279000000
H     4.311000000     6.398000000     4.921000000
H     3.720000000     5.163000000     4.275000000
O    -1.531000000     3.749000000    -2.586000000
H    -2.186000000     3.655000000    -1.894000000
H    -1.517000000     4.686000000    -2.777000000
O     2.319000000     1.116000000     5.493000000
H     2.900000000     0.407000000     5.218000000
H     2.087000000     0.899000000     6.396000000
O    -6.505000000     2.415000000     1.199000000
H    -5.608000000     2.186000000     1.443000000
H    -6.829000000     2.930000000     1.938000000
O     1.559000000     6.943000000    -1.416000000
H     1.697000000     6.098000000    -0.988000000
H     2.435000000     7.220000000    -1.686000000
O     2.046000000    -5.869000000    -2.589000000
H     1.998000000    -6.209000000    -1.695000000
H     2.548000000    -5.058000000    -2.510000000
O    -2.996000000    -3.602000000    -0.735000000
H    -3.049000000    -2.971000000    -1.453000000
H    -3.874000000    -3.978000000    -0.681000000
O     3.366000000     3.529000000     4.537000000
H     3.605000000     2.878000000     5.198000000
H     2.737000000     3.077000000     3.974000000
O     4.296000000    -3.767000000     2.029000000
H     5.176000000    -3.913000000     1.680000000
H     4.347000000    -2.912000000     2.455000000
O    -1.224000000    -5.641000000    -0.765000000
H    -1.320000000    -5.732000000    -1.713000000
H    -1.947000000    -5.070000000    -0.506000000
O    -1.800000000     5.930000000     1.753000000
H    -0.912000000     5.972000000     1.398000000
H    -2.021000000     6.840000000     1.952000000
O    -1.504000000    -6.296000000    -3.663000000
H    -2.323000000    -6.735000000    -3.434000000
H    -1.686000000    -5.871000000    -4.501000000
O     2.657000000    -6.153000000     2.199000000
H     3.026000000    -5.270000000     2.189000000
H     2.210000000    -6.235000000     1.356000000
O    -3.080000000     5.506000000    -0.978000000
H    -2.715000000     5.346000000    -0.108000000
H    -2.473000000     6.126000000    -1.382000000
O     2.046000000     3.937000000    -1.854000000
H     1.118000000     4.124000000    -1.711000000
H     2.081000000     2.991000000    -1.993000000
O    -0.966000000     3.158000000    -5.291000000
H    -0.941000000     4.101000000    -5.456000000
H    -0.949000000     3.081000000    -4.337000000
O     5.154000000    -1.866000000    -3.093000000
H     5.102000000    -1.941000000    -2.140000000
H     4.800000000    -0.998000000    -3.284000000
O    -5.710000000    -4.732000000    -0.754000000
H    -5.964000000    -5.380000000    -1.411000000
H    -6.530000000    -4.303000000    -0.511000000
O    -4.789000000    -4.503000000    -4.555000000
H    -4.876000000    -5.409000000    -4.850000000
H    -3.874000000    -4.281000000    -4.728000000
O    -4.188000000     1.937000000    -4.026000000
H    -4.074000000     1.063000000    -3.652000000
H    -3.891000000     2.532000000    -3.338000000
O    -2.038000000    -2.282000000    -3.841000000
H    -1.527000000    -3.047000000    -4.108000000
H    -1.427000000    -1.548000000    -3.918000000
O    -5.825000000     3.425000000    -1.602000000
H    -5.578000000     2.692000000    -1.038000000
H    -6.373000000     3.980000000    -1.047000000
O    -2.776000000    -2.693000000     2.948000000
H    -2.022000000    -2.155000000     3.193000000
H    -3.490000000    -2.066000000     2.836000000
O    -0.450000000    -3.316000000     1.468000000
H    -1.383000000    -3.293000000     1.683000000
H    -0.349000000    -2.666000000     0.773000000
O     4.838000000     1.879000000    -0.006000000
H     5.462000000     2.094000000     0.687000000
H     4.188000000     1.322000000     0.423000000
O     3.075000000    -1.463000000     4.366000000
H     2.779000000    -1.344000000     3.463000000
H     2.454000000    -2.086000000     4.742000000
O    -2.501000000     2.340000000     3.736000000
H    -1.567000000     2.500000000     3.872000000
H    -2.886000000     3.213000000     3.658000000
O     5.806000000    -1.465000000     5.257000000
H     4.872000000    -1.669000000     5.203000000
H     6.212000000    -2.021000000     4.593000000
O     5.343000000     1.372000000     5.780000000
H     5.334000000     0.433000000     5.592000000
H     5.094000000     1.434000000     6.702000000
O    -0.671000000    -6.538000000     2.405000000
H     0.251000000    -6.759000000     2.536000000
H    -0.723000000    -6.263000000     1.490000000
O     0.197000000     1.854000000     3.994000000
H     0.814000000     1.616000000     4.686000000
H     0.752000000     2.084000000     3.249000000
O    -4.219000000    -0.961000000    -4.177000000
H    -3.372000000    -1.405000000    -4.145000000
H    -4.806000000    -1.593000000    -4.592000000
O     1.636000000     1.404000000    -2.457000000
H     1.038000000     1.174000000    -3.167000000
H     1.270000000     0.972000000    -1.685000000
O    -5.408000000    -1.214000000     2.739000000
H    -5.720000000    -2.118000000     2.772000000
H    -6.149000000    -0.718000000     2.390000000
