158
-3046.81715
C     0.966000000     0.803000000     0.560000000
H     1.823000000     1.410000000     0.842000000
C     1.210000000    -0.364000000    -0.167000000
H     2.262000000    -0.581000000    -0.336000000
C     0.099000000    -1.091000000    -0.670000000
H     0.196000000    -1.848000000    -1.376000000
C    -1.186000000    -0.679000000    -0.324000000
H    -2.062000000    -1.079000000    -0.827000000
C    -1.367000000     0.509000000     0.439000000
H    -2.352000000     0.897000000     0.685000000
C    -0.259000000     1.226000000     0.949000000
C    -0.300000000     2.400000000     1.873000000
O     0.656000000     3.093000000     2.179000000
O    -1.390000000     2.797000000     2.164000000
O    -1.676000000    -4.833000000     1.347000000
H    -1.847000000    -5.166000000     0.466000000
H    -1.067000000    -4.106000000     1.214000000
O     4.122000000     0.042000000    -5.361000000
H     3.888000000    -0.706000000    -5.910000000
H     3.422000000     0.089000000    -4.710000000
O     2.708000000    -4.319000000     1.961000000
H     2.044000000    -4.890000000     2.348000000
H     2.374000000    -4.121000000     1.086000000
O     2.175000000     6.273000000     3.425000000
H     1.316000000     5.867000000     3.317000000
H     2.798000000     5.575000000     3.223000000
O    -1.963000000     1.397000000     5.474000000
H    -1.799000000     0.466000000     5.328000000
H    -2.609000000     1.634000000     4.809000000
O    -0.181000000    -1.272000000    -6.770000000
H    -0.514000000    -1.471000000    -7.645000000
H     0.734000000    -1.553000000    -6.791000000
O     5.469000000     1.532000000     0.639000000
H     5.378000000     2.480000000     0.734000000
H     4.866000000     1.303000000    -0.068000000
O    -3.727000000     2.322000000     3.512000000
H    -2.971000000     2.366000000     2.927000000
H    -4.415000000     1.916000000     2.985000000
O     1.510000000    -1.534000000    -3.897000000
H     1.467000000    -0.937000000    -3.150000000
H     0.640000000    -1.930000000    -3.939000000
O    -1.399000000    -1.105000000     4.539000000
H    -1.576000000    -1.403000000     3.647000000
H    -0.735000000    -1.712000000     4.867000000
O     3.985000000    -2.204000000     3.549000000
H     3.382000000    -1.477000000     3.392000000
H     3.786000000    -2.834000000     2.856000000
O     4.450000000    -1.736000000    -2.003000000
H     4.992000000    -1.922000000    -1.236000000
H     4.311000000    -0.790000000    -1.975000000
O    -4.818000000     4.673000000    -1.551000000
H    -5.588000000     4.243000000    -1.924000000
H    -4.782000000     4.359000000    -0.648000000
O    -5.318000000     4.085000000     0.990000000
H    -5.408000000     3.373000000     1.624000000
H    -4.421000000     4.398000000     1.108000000
O    -0.538000000     5.455000000     3.230000000
H    -0.487000000     4.609000000     2.784000000
H    -1.369000000     5.426000000     3.704000000
O     3.993000000     2.805000000     4.444000000
H     4.068000000     1.858000000     4.557000000
H     4.775000000     3.160000000     4.866000000
O     0.148000000    -5.104000000    -1.420000000
H     1.039000000    -4.812000000    -1.228000000
H     0.170000000    -6.050000000    -1.277000000
O    -0.410000000    -5.062000000    -6.306000000
H    -0.207000000    -4.572000000    -7.103000000
H    -0.363000000    -4.410000000    -5.606000000
O    -2.890000000     0.158000000    -3.420000000
H    -2.179000000     0.779000000    -3.263000000
H    -2.666000000    -0.256000000    -4.254000000
O    -5.750000000     1.272000000     2.021000000
H    -6.210000000     0.475000000     2.286000000
H    -6.359000000     1.715000000     1.431000000
O    -0.006000000    -3.750000000    -4.028000000
H     0.869000000    -4.140000000    -4.030000000
H    -0.461000000    -4.188000000    -3.309000000
O    -5.041000000    -2.691000000    -1.106000000
H    -4.122000000    -2.791000000    -1.353000000
H    -5.154000000    -1.749000000    -0.979000000
O     3.170000000     3.894000000     2.090000000
H     3.594000000     3.387000000     2.783000000
H     2.304000000     3.498000000     2.000000000
O     4.303000000     3.995000000    -0.167000000
H     3.763000000     4.556000000    -0.723000000
H     3.819000000     3.936000000     0.656000000
O     2.668000000    -3.554000000    -4.979000000
H     2.172000000    -2.777000000    -4.720000000
H     3.018000000    -3.339000000    -5.843000000
O     1.047000000     5.406000000     0.385000000
H     1.707000000     5.965000000     0.796000000
H     1.026000000     4.619000000     0.929000000
O    -1.273000000     4.490000000    -0.882000000
H    -0.470000000     4.826000000    -0.486000000
H    -1.972000000     4.794000000    -0.303000000
O     2.245000000     1.579000000    -3.624000000
H     2.284000000     2.440000000    -3.206000000
H     1.395000000     1.565000000    -4.063000000
O     5.120000000    -3.498000000    -3.991000000
H     5.163000000    -3.217000000    -3.077000000
H     4.204000000    -3.373000000    -4.237000000
O     1.673000000    -0.547000000     3.540000000
H     1.840000000     0.396000000     3.557000000
H     1.233000000    -0.727000000     4.371000000
O    -2.412000000    -4.829000000    -1.549000000
H    -1.456000000    -4.790000000    -1.534000000
H    -2.619000000    -5.309000000    -2.351000000
O     2.676000000    -6.461000000    -4.343000000
H     2.705000000    -5.507000000    -4.409000000
H     3.565000000    -6.744000000    -4.559000000
O     1.650000000     4.137000000    -2.051000000
H     1.326000000     4.462000000    -1.211000000
H     1.820000000     4.926000000    -2.565000000
O     2.753000000    -4.178000000    -1.054000000
H     3.317000000    -3.613000000    -1.581000000
H     3.240000000    -4.998000000    -0.977000000
O    -2.415000000    -2.570000000    -5.396000000
H    -1.773000000    -2.009000000    -5.831000000
H    -1.896000000    -3.114000000    -4.804000000
O     0.138000000    -2.698000000     1.915000000
H     0.690000000    -1.964000000     1.646000000
H     0.038000000    -2.587000000     2.861000000
O    -4.102000000     4.709000000     5.378000000
H    -4.033000000     4.698000000     6.332000000
H    -4.048000000     3.788000000     5.123000000
O     4.024000000     0.997000000    -1.911000000
H     3.344000000     1.217000000    -2.548000000
H     4.688000000     1.676000000    -2.026000000
O    -0.526000000     5.274000000     6.432000000
H    -0.518000000     4.403000000     6.035000000
H     0.354000000     5.617000000     6.276000000
O    -2.753000000     4.964000000     1.331000000
H    -2.379000000     4.291000000     1.900000000
H    -3.002000000     5.670000000     1.926000000
O    -0.052000000     1.228000000    -5.329000000
H    -0.984000000     1.417000000    -5.225000000
H    -0.026000000     0.334000000    -5.670000000
O    -0.085000000     7.889000000     1.542000000
H     0.337000000     7.185000000     1.050000000
H    -0.314000000     7.491000000     2.382000000
O    -3.506000000     6.642000000     3.291000000
H    -3.787000000     7.547000000     3.424000000
H    -3.726000000     6.200000000     4.111000000
O    -3.257000000    -1.978000000     1.659000000
H    -2.454000000    -2.453000000     1.445000000
H    -3.431000000    -1.441000000     0.886000000
O     0.263000000     3.174000000     4.942000000
H    -0.183000000     2.339000000     5.084000000
H     0.577000000     3.128000000     4.039000000
O     2.221000000     5.308000000     6.133000000
H     1.977000000     4.407000000     5.921000000
H     2.550000000     5.667000000     5.309000000
O    -0.964000000     2.000000000    -2.195000000
H    -1.220000000     2.859000000    -1.857000000
H    -0.624000000     1.534000000    -1.432000000
O    -4.473000000    -0.137000000    -1.093000000
H    -3.972000000     0.055000000    -1.886000000
H    -5.187000000     0.500000000    -1.100000000
