158
-3037.90838
C    -0.021000000    -0.500000000    -1.428000000
H    -0.203000000    -1.009000000    -2.371000000
C    -0.825000000     0.502000000    -0.885000000
H    -1.710000000     0.866000000    -1.400000000
C    -0.643000000     0.902000000     0.448000000
H    -1.423000000     1.582000000     0.824000000
C     0.313000000     0.355000000     1.234000000
H     0.294000000     0.633000000     2.284000000
C     1.117000000    -0.656000000     0.749000000
H     1.849000000    -1.125000000     1.401000000
C     0.945000000    -1.070000000    -0.573000000
C     1.754000000    -2.168000000    -1.167000000
O     1.746000000    -2.436000000    -2.334000000
O     2.335000000    -2.843000000    -0.347000000
O    -1.694000000     1.331000000     4.593000000
H    -1.100000000     2.059000000     4.777000000
H    -1.616000000     0.759000000     5.356000000
O    -1.794000000    -4.266000000     0.958000000
H    -1.996000000    -4.802000000     1.725000000
H    -0.890000000    -4.491000000     0.739000000
O     6.300000000    -1.905000000     2.915000000
H     5.724000000    -1.758000000     3.666000000
H     5.708000000    -1.950000000     2.164000000
O    -7.304000000     1.253000000    -0.324000000
H    -6.381000000     1.508000000    -0.318000000
H    -7.689000000     1.729000000     0.412000000
O     2.547000000    -3.487000000     2.166000000
H     2.510000000    -2.672000000     2.666000000
H     2.506000000    -3.210000000     1.251000000
O    -3.474000000    -3.339000000    -0.872000000
H    -3.142000000    -3.868000000    -1.597000000
H    -2.852000000    -3.491000000    -0.160000000
O     0.932000000     2.325000000    -3.523000000
H     1.857000000     2.481000000    -3.331000000
H     0.891000000     1.402000000    -3.772000000
O     5.113000000     1.487000000     0.852000000
H     4.919000000     0.621000000     0.495000000
H     6.050000000     1.606000000     0.695000000
O    -3.677000000    -0.220000000     2.859000000
H    -4.341000000    -0.852000000     3.136000000
H    -2.904000000    -0.752000000     2.671000000
O    -1.633000000     4.100000000     2.041000000
H    -2.121000000     4.917000000     1.939000000
H    -2.202000000     3.432000000     1.660000000
O    -4.434000000    -0.700000000    -1.267000000
H    -3.893000000    -1.448000000    -1.017000000
H    -4.271000000    -0.589000000    -2.204000000
O    -0.436000000    -4.391000000    -2.600000000
H     0.330000000    -4.031000000    -2.152000000
H    -0.480000000    -5.301000000    -2.305000000
O    -3.519000000    -0.264000000    -3.741000000
H    -2.639000000     0.040000000    -3.517000000
H    -3.636000000    -0.006000000    -4.655000000
O     3.086000000    -3.095000000    -4.534000000
H     2.998000000    -2.789000000    -3.632000000
H     2.190000000    -3.288000000    -4.811000000
O     2.934000000     0.823000000     5.238000000
H     3.844000000     1.016000000     5.014000000
H     2.977000000     0.455000000     6.120000000
O     1.014000000     2.683000000     4.821000000
H     1.564000000     1.929000000     5.033000000
H     1.627000000     3.342000000     4.493000000
O    -5.519000000     5.482000000     0.295000000
H    -5.043000000     5.378000000    -0.529000000
H    -5.447000000     6.415000000     0.497000000
O    -4.758000000     2.007000000    -0.563000000
H    -4.424000000     1.126000000    -0.732000000
H    -4.264000000     2.307000000     0.200000000
O     4.229000000    -4.278000000    -1.547000000
H     3.765000000    -4.791000000    -2.209000000
H     3.623000000    -3.573000000    -1.323000000
O     4.683000000    -1.418000000     0.552000000
H     4.884000000    -1.275000000    -0.373000000
H     3.902000000    -1.972000000     0.544000000
O    -4.336000000     1.784000000     5.159000000
H    -3.634000000     1.932000000     5.793000000
H    -3.958000000     1.179000000     4.521000000
O    -2.629000000    -2.188000000    -5.587000000
H    -3.421000000    -1.676000000    -5.751000000
H    -1.939000000    -1.534000000    -5.477000000
O    -1.395000000     1.695000000    -4.312000000
H    -1.619000000     2.297000000    -5.023000000
H    -0.575000000     2.038000000    -3.957000000
O     3.119000000     4.429000000    -0.870000000
H     3.755000000     4.712000000    -0.212000000
H     2.267000000     4.628000000    -0.480000000
O     5.883000000    -5.978000000     0.250000000
H     6.673000000    -5.446000000     0.352000000
H     5.281000000    -5.420000000    -0.244000000
O    -4.469000000     5.635000000    -2.219000000
H    -3.850000000     6.360000000    -2.136000000
H    -3.918000000     4.860000000    -2.327000000
O     1.800000000    -1.588000000     4.026000000
H     0.889000000    -1.362000000     3.840000000
H     2.138000000    -0.836000000     4.513000000
O    -6.910000000     0.164000000     3.504000000
H    -7.824000000     0.445000000     3.447000000
H    -6.416000000     0.869000000     3.086000000
O     4.229000000    -5.805000000     2.366000000
H     4.695000000    -6.126000000     1.594000000
H     3.480000000    -5.327000000     2.012000000
O     0.498000000    -3.381000000    -5.024000000
H    -0.090000000    -2.643000000    -5.184000000
H     0.130000000    -3.819000000    -4.256000000
O     0.491000000    -5.392000000     0.353000000
H     1.364000000    -5.011000000     0.446000000
H     0.653000000    -6.312000000     0.141000000
O     5.780000000    -3.766000000    -4.617000000
H     4.941000000    -3.399000000    -4.895000000
H     6.008000000    -3.271000000    -3.830000000
O    -0.879000000     4.441000000     5.102000000
H    -1.565000000     4.337000000     4.443000000
H    -0.158000000     3.898000000     4.784000000
O     5.701000000    -0.897000000    -1.769000000
H     5.573000000    -0.801000000    -2.712000000
H     6.535000000    -1.358000000    -1.685000000
O    -6.216000000     2.775000000     2.659000000
H    -6.576000000     2.707000000     3.543000000
H    -6.762000000     3.434000000     2.229000000
O     2.502000000     2.635000000     1.411000000
H     2.193000000     1.870000000     0.926000000
H     3.445000000     2.655000000     1.253000000
O    -3.658000000     2.333000000     1.816000000
H    -4.447000000     2.662000000     2.247000000
H    -3.483000000     1.495000000     2.244000000
O     1.137000000    -4.153000000     5.288000000
H     1.852000000    -4.685000000     4.940000000
H     1.350000000    -3.260000000     5.020000000
O     0.924000000     4.819000000     2.309000000
H     0.012000000     4.529000000     2.319000000
H     1.398000000     4.105000000     1.883000000
O    -1.186000000    -2.098000000     2.519000000
H    -1.232000000    -2.906000000     2.008000000
H    -0.698000000    -1.490000000     1.964000000
O     2.257000000    -0.245000000    -4.064000000
H     3.164000000    -0.111000000    -3.788000000
H     1.976000000    -1.028000000    -3.590000000
O    -2.481000000    -2.078000000     4.802000000
H    -2.054000000    -1.404000000     5.331000000
H    -1.946000000    -2.135000000     4.010000000
O    -2.943000000    -3.977000000    -3.482000000
H    -1.986000000    -3.962000000    -3.461000000
H    -3.183000000    -3.217000000    -4.013000000
O    -3.094000000     3.384000000    -2.598000000
H    -3.871000000     2.846000000    -2.442000000
H    -2.645000000     2.950000000    -3.324000000
O     2.227000000    -6.784000000    -3.198000000
H     1.989000000    -7.529000000    -3.751000000
H     2.221000000    -6.034000000    -3.793000000
O    -0.479000000    -0.603000000    -5.683000000
H    -0.574000000     0.279000000    -5.323000000
H     0.272000000    -0.540000000    -6.273000000
O    -0.429000000     4.529000000    -2.128000000
H    -1.373000000     4.483000000    -1.977000000
H    -0.147000000     3.614000000    -2.158000000
O     0.534000000     7.213000000     3.435000000
H    -0.419000000     7.296000000     3.482000000
H     0.679000000     6.397000000     2.956000000
