158
-3045.66402
C     0.159000000    -0.647000000     1.280000000
H     0.183000000    -1.098000000     2.268000000
C    -0.529000000     0.506000000     1.056000000
H    -0.970000000     1.016000000     1.909000000
C    -0.636000000     1.084000000    -0.229000000
H    -1.096000000     2.029000000    -0.432000000
C    -0.101000000     0.365000000    -1.292000000
H    -0.139000000     0.784000000    -2.294000000
C     0.629000000    -0.795000000    -1.069000000
H     0.974000000    -1.337000000    -1.946000000
C     0.782000000    -1.332000000     0.230000000
C     1.508000000    -2.711000000     0.432000000
O     2.075000000    -2.895000000     1.482000000
O     1.540000000    -3.535000000    -0.429000000
O     2.995000000     2.505000000    -0.137000000
H     2.500000000     3.084000000     0.443000000
H     2.470000000     2.459000000    -0.936000000
O    -2.554000000    -0.829000000     3.804000000
H    -1.890000000    -1.456000000     4.089000000
H    -3.377000000    -1.181000000     4.143000000
O     0.694000000     3.352000000     3.411000000
H    -0.080000000     3.023000000     2.954000000
H     0.376000000     3.591000000     4.281000000
O    -1.206000000    -6.688000000    -0.373000000
H    -1.634000000    -5.870000000    -0.625000000
H    -1.555000000    -6.883000000     0.497000000
O     0.985000000    -0.019000000    -5.339000000
H     0.515000000    -0.319000000    -6.117000000
H     1.872000000     0.164000000    -5.652000000
O     4.726000000    -6.582000000     3.105000000
H     4.126000000    -7.291000000     2.871000000
H     4.842000000    -6.088000000     2.294000000
O    -1.878000000     1.972000000     4.908000000
H    -2.277000000     1.124000000     4.711000000
H    -1.255000000     1.786000000     5.611000000
O    -4.882000000     3.914000000    -3.569000000
H    -5.129000000     3.155000000    -4.099000000
H    -5.420000000     4.628000000    -3.909000000
O    -2.880000000    -1.834000000     0.488000000
H    -3.389000000    -1.314000000     1.109000000
H    -1.970000000    -1.597000000     0.667000000
O     1.945000000    -2.500000000     4.248000000
H     2.767000000    -2.353000000     4.717000000
H     2.110000000    -2.165000000     3.366000000
O     3.151000000    -2.422000000    -5.044000000
H     3.139000000    -1.511000000    -5.339000000
H     3.043000000    -2.369000000    -4.095000000
O     6.333000000    -1.116000000     1.553000000
H     5.585000000    -0.862000000     1.014000000
H     6.147000000    -2.020000000     1.809000000
O    -3.739000000    -4.357000000     3.113000000
H    -2.815000000    -4.605000000     3.090000000
H    -3.768000000    -3.594000000     3.691000000
O    -0.261000000     3.399000000    -4.848000000
H    -0.729000000     3.852000000    -4.147000000
H    -0.928000000     3.238000000    -5.516000000
O    -2.752000000    -1.139000000    -2.316000000
H    -1.904000000    -1.131000000    -2.759000000
H    -2.735000000    -1.932000000    -1.780000000
O     3.823000000    -4.997000000     0.748000000
H     3.142000000    -4.353000000     0.557000000
H     3.717000000    -5.665000000     0.071000000
O     5.373000000    -3.518000000     2.442000000
H     5.255000000    -3.922000000     3.301000000
H     4.697000000    -3.917000000     1.894000000
O    -2.482000000     4.685000000    -3.270000000
H    -3.405000000     4.432000000    -3.262000000
H    -2.457000000     5.515000000    -2.793000000
O    -3.240000000     4.581000000     4.836000000
H    -2.789000000     4.545000000     3.993000000
H    -3.053000000     3.736000000     5.244000000
O     0.376000000     5.301000000    -2.128000000
H     0.411000000     5.878000000    -2.890000000
H     0.278000000     4.423000000    -2.496000000
O     1.905000000     5.883000000     3.724000000
H     1.116000000     6.372000000     3.490000000
H     1.584000000     5.015000000     3.968000000
O    -1.001000000    -5.510000000     3.612000000
H    -1.115000000    -6.374000000     3.216000000
H    -0.108000000    -5.257000000     3.382000000
O    -7.542000000     0.988000000    -1.413000000
H    -8.138000000     0.308000000    -1.097000000
H    -6.672000000     0.595000000    -1.343000000
O    -4.258000000     0.254000000     1.993000000
H    -3.520000000     0.135000000     2.590000000
H    -4.567000000     1.143000000     2.167000000
O    -2.389000000     0.578000000    -4.867000000
H    -2.032000000     0.434000000    -3.991000000
H    -3.183000000     1.092000000    -4.720000000
O     1.259000000    -2.095000000     7.758000000
H     2.108000000    -1.706000000     7.968000000
H     1.136000000    -1.915000000     6.826000000
O     4.205000000    -1.797000000     5.799000000
H     4.948000000    -2.214000000     6.236000000
H     4.595000000    -1.327000000     5.062000000
O    -1.000000000    -3.598000000    -1.644000000
H    -0.145000000    -3.497000000    -1.227000000
H    -0.833000000    -3.442000000    -2.573000000
O    -2.043000000     2.334000000    -6.991000000
H    -1.535000000     2.096000000    -7.766000000
H    -2.091000000     1.527000000    -6.479000000
O     1.832000000     2.378000000    -2.743000000
H     1.853000000     2.866000000    -3.566000000
H     1.527000000     1.505000000    -2.990000000
O     5.545000000    -4.729000000    -1.593000000
H     5.103000000    -4.992000000    -0.786000000
H     6.171000000    -4.060000000    -1.316000000
O     2.352000000    -5.035000000     5.417000000
H     2.300000000    -4.801000000     4.490000000
H     2.433000000    -4.197000000     5.872000000
O     1.459000000    -5.396000000     2.537000000
H     1.648000000    -4.519000000     2.205000000
H     2.065000000    -5.967000000     2.064000000
O     3.498000000    -2.969000000    -2.449000000
H     2.855000000    -3.057000000    -1.745000000
H     4.030000000    -3.762000000    -2.388000000
O    -0.662000000    -2.571000000     4.855000000
H     0.196000000    -2.692000000     4.448000000
H    -0.701000000    -3.242000000     5.536000000
O     1.990000000    -6.477000000    -0.739000000
H     1.333000000    -7.051000000    -1.133000000
H     1.566000000    -5.619000000    -0.699000000
O     2.746000000     6.654000000    -1.456000000
H     2.138000000     5.916000000    -1.409000000
H     2.857000000     6.814000000    -2.393000000
O    -0.739000000    -1.700000000    -3.950000000
H    -0.127000000    -1.085000000    -4.354000000
H    -1.435000000    -1.807000000    -4.599000000
O     3.856000000    -0.225000000     0.020000000
H     3.210000000    -0.643000000    -0.549000000
H     3.562000000     0.684000000     0.088000000
O    -4.680000000     0.300000000    -0.776000000
H    -3.764000000     0.268000000    -1.054000000
H    -4.641000000     0.277000000     0.180000000
O    -6.343000000     3.533000000    -1.293000000
H    -6.864000000     2.759000000    -1.508000000
H    -5.789000000     3.670000000    -2.061000000
O     3.348000000     2.460000000     3.023000000
H     3.213000000     2.465000000     2.075000000
H     2.465000000     2.507000000     3.390000000
O     4.970000000    -0.016000000     3.837000000
H     5.753000000    -0.167000000     3.307000000
H     4.483000000     0.655000000     3.359000000
O    -4.085000000     3.231000000     0.500000000
H    -4.562000000     2.979000000    -0.291000000
H    -4.770000000     3.457000000     1.130000000
O    -0.997000000     5.799000000     0.110000000
H    -0.407000000     5.486000000    -0.576000000
H    -1.727000000     6.196000000    -0.364000000
O     1.349000000    -4.783000000    -5.459000000
H     1.876000000    -5.164000000    -6.161000000
H     1.915000000    -4.115000000    -5.071000000
O    -0.062000000     7.148000000     2.241000000
H    -0.894000000     7.619000000     2.200000000
H    -0.208000000     6.358000000     1.722000000
O    -1.605000000     3.875000000     1.978000000
H    -2.335000000     3.541000000     1.457000000
H    -1.305000000     4.649000000     1.501000000
