158
-3008.76704
C     0.462000000    -0.965000000     0.968000000
H     0.705000000    -1.637000000     1.787000000
C    -0.032000000     0.273000000     1.309000000
H    -0.132000000     0.575000000     2.349000000
C    -0.394000000     1.124000000     0.268000000
H    -0.885000000     2.075000000     0.561000000
C    -0.280000000     0.749000000    -0.990000000
H    -0.616000000     1.481000000    -1.721000000
C     0.319000000    -0.482000000    -1.351000000
H     0.465000000    -0.786000000    -2.384000000
C     0.576000000    -1.423000000    -0.406000000
C     0.811000000    -2.894000000    -0.781000000
O     1.052000000    -3.748000000     0.074000000
O     0.587000000    -3.245000000    -1.931000000
O     1.276000000     6.165000000    -0.738000000
H     1.256000000     6.242000000    -1.692000000
H     1.667000000     6.986000000    -0.439000000
O     5.564000000    -0.454000000    -2.802000000
H     5.162000000    -1.313000000    -2.666000000
H     4.823000000     0.143000000    -2.903000000
O     2.411000000     5.196000000     4.569000000
H     2.458000000     4.452000000     3.969000000
H     2.070000000     5.913000000     4.035000000
O    -0.053000000    -3.906000000     5.706000000
H     0.539000000    -3.334000000     5.218000000
H    -0.438000000    -4.477000000     5.041000000
O    -1.180000000    -7.187000000    -0.351000000
H    -0.406000000    -6.702000000    -0.067000000
H    -1.025000000    -8.083000000    -0.053000000
O    -0.343000000     6.809000000     2.041000000
H     0.424000000     7.217000000     2.442000000
H    -0.930000000     7.541000000     1.850000000
O    -1.790000000     0.139000000    -5.308000000
H    -1.681000000     1.054000000    -5.567000000
H    -1.249000000    -0.352000000    -5.926000000
O    -2.287000000     2.813000000    -5.615000000
H    -2.067000000     3.068000000    -6.511000000
H    -2.714000000     3.585000000    -5.243000000
O     4.072000000    -7.025000000    -0.513000000
H     4.466000000    -7.674000000    -1.095000000
H     4.550000000    -6.216000000    -0.697000000
O    -1.529000000    -0.546000000     4.987000000
H    -1.782000000    -0.371000000     4.081000000
H    -2.348000000    -0.775000000     5.425000000
O     4.229000000     0.280000000     3.219000000
H     4.100000000     0.686000000     2.362000000
H     3.343000000     0.151000000     3.559000000
O    -0.984000000    -5.661000000     3.731000000
H    -0.920000000    -5.157000000     2.919000000
H    -1.881000000    -5.997000000     3.733000000
O    -3.356000000    -0.185000000    -0.056000000
H    -3.624000000     0.725000000     0.069000000
H    -2.817000000    -0.170000000    -0.847000000
O     4.011000000    -1.513000000    -0.408000000
H     3.572000000    -0.666000000    -0.340000000
H     3.529000000    -1.978000000    -1.092000000
O    -2.941000000    -5.504000000    -1.613000000
H    -3.776000000    -5.544000000    -1.145000000
H    -2.370000000    -6.106000000    -1.135000000
O     3.937000000    -3.013000000    -5.321000000
H     3.182000000    -2.943000000    -5.905000000
H     3.555000000    -3.107000000    -4.448000000
O     2.821000000     1.421000000    -0.431000000
H     2.050000000     1.950000000    -0.229000000
H     2.749000000     1.239000000    -1.368000000
O     5.494000000    -4.548000000    -0.939000000
H     5.454000000    -3.983000000    -0.168000000
H     6.391000000    -4.884000000    -0.944000000
O    -1.986000000    -3.167000000    -2.487000000
H    -2.206000000    -3.963000000    -2.003000000
H    -1.054000000    -3.258000000    -2.686000000
O    -3.715000000     1.702000000    -3.310000000
H    -3.095000000     1.889000000    -4.015000000
H    -3.531000000     0.796000000    -3.062000000
O    -5.689000000     0.943000000    -1.609000000
H    -5.173000000     1.274000000    -2.343000000
H    -5.109000000     0.321000000    -1.170000000
O     2.504000000    -4.727000000     1.892000000
H     1.927000000    -4.467000000     1.173000000
H     2.292000000    -5.647000000     2.048000000
O     1.765000000    -0.297000000     4.539000000
H     1.953000000    -1.205000000     4.302000000
H     0.814000000    -0.270000000     4.647000000
O    -4.251000000     2.152000000     1.241000000
H    -4.438000000     2.762000000     0.528000000
H    -4.838000000     2.423000000     1.947000000
O     3.313000000     1.102000000    -3.002000000
H     2.565000000     1.358000000    -3.542000000
H     3.861000000     1.886000000    -2.965000000
O    -1.570000000     5.752000000     4.558000000
H    -2.518000000     5.840000000     4.460000000
H    -1.214000000     6.036000000     3.716000000
O    -3.672000000     6.087000000    -2.022000000
H    -4.172000000     6.899000000    -1.939000000
H    -3.696000000     5.885000000    -2.957000000
O     0.209000000     2.488000000     4.472000000
H    -0.574000000     2.299000000     3.954000000
H    -0.097000000     3.077000000     5.161000000
O     2.046000000    -7.362000000     2.239000000
H     2.896000000    -7.683000000     1.939000000
H     1.417000000    -8.004000000     1.910000000
O    -2.985000000    -0.101000000     2.708000000
H    -3.889000000     0.052000000     2.983000000
H    -2.944000000     0.243000000     1.816000000
O     2.220000000    -2.874000000     3.900000000
H     3.004000000    -3.129000000     4.386000000
H     2.171000000    -3.500000000     3.178000000
O     1.444000000    -6.100000000    -1.423000000
H     2.183000000    -6.367000000    -0.876000000
H     1.048000000    -5.368000000    -0.950000000
O     1.143000000     2.786000000    -3.926000000
H     1.325000000     2.545000000    -4.834000000
H     1.942000000     3.220000000    -3.629000000
O     4.857000000    -6.005000000     2.536000000
H     3.991000000    -5.637000000     2.359000000
H     5.418000000    -5.242000000     2.672000000
O    -1.017000000    -4.415000000     1.336000000
H    -0.144000000    -4.085000000     1.123000000
H    -1.510000000    -4.331000000     0.520000000
O     3.677000000    -3.420000000    -2.702000000
H     2.779000000    -3.659000000    -2.472000000
H     4.223000000    -3.991000000    -2.161000000
O    -2.545000000    -3.036000000     3.169000000
H    -2.054000000    -3.487000000     2.482000000
H    -2.709000000    -2.163000000     2.813000000
O     1.415000000    -4.287000000    -7.048000000
H     1.921000000    -5.080000000    -7.230000000
H     1.163000000    -4.370000000    -6.129000000
O    -3.177000000    -0.944000000    -3.312000000
H    -2.671000000    -1.666000000    -2.940000000
H    -2.765000000    -0.775000000    -4.160000000
O     1.545000000     3.793000000     0.344000000
H     0.588000000     3.790000000     0.355000000
H     1.778000000     4.667000000     0.031000000
O    -4.043000000     3.561000000    -1.077000000
H    -3.876000000     4.497000000    -1.192000000
H    -3.713000000     3.159000000    -1.880000000
O     4.016000000     5.653000000     1.723000000
H     3.082000000     5.478000000     1.608000000
H     4.188000000     5.444000000     2.642000000
O     2.605000000     2.854000000     3.062000000
H     1.947000000     2.257000000     3.419000000
H     2.301000000     3.041000000     2.173000000
O     1.196000000    -4.599000000    -4.150000000
H     0.935000000    -4.410000000    -3.248000000
H     1.484000000    -5.511000000    -4.129000000
O    -4.350000000     5.955000000     1.310000000
H    -3.601000000     5.732000000     0.757000000
H    -5.024000000     6.243000000     0.694000000
O    -0.559000000     4.179000000    -1.999000000
H    -0.152000000     3.622000000    -2.663000000
H    -0.152000000     5.036000000    -2.123000000
O    -1.727000000     4.683000000     0.767000000
H    -1.080000000     5.362000000     0.959000000
H    -1.505000000     4.383000000    -0.114000000
O    -2.135000000     2.987000000     2.882000000
H    -2.704000000     2.272000000     2.594000000
H    -2.240000000     3.662000000     2.212000000
