158
-3049.64150
C    -0.842000000    -1.134000000    -0.047000000
H    -1.651000000    -1.853000000    -0.146000000
C    -1.006000000     0.014000000    -0.811000000
H    -1.876000000     0.091000000    -1.457000000
C    -0.155000000     1.081000000    -0.635000000
H    -0.362000000     2.102000000    -1.025000000
C     0.984000000     0.905000000     0.211000000
H     1.622000000     1.757000000     0.431000000
C     1.223000000    -0.281000000     0.912000000
H     2.110000000    -0.526000000     1.491000000
C     0.276000000    -1.336000000     0.829000000
C     0.374000000    -2.646000000     1.654000000
O    -0.541000000    -3.489000000     1.495000000
O     1.446000000    -2.962000000     2.106000000
O     2.344000000     7.802000000    -0.291000000
H     2.933000000     8.137000000    -0.968000000
H     1.656000000     7.348000000    -0.776000000
O     0.564000000     0.877000000    -7.259000000
H     0.520000000     0.556000000    -6.358000000
H    -0.330000000     0.789000000    -7.588000000
O    -3.418000000     3.439000000    -1.806000000
H    -3.686000000     3.483000000    -0.888000000
H    -3.571000000     2.528000000    -2.056000000
O    -0.589000000    -6.781000000    -0.627000000
H    -0.051000000    -6.483000000     0.107000000
H    -1.148000000    -7.462000000    -0.253000000
O    -4.673000000    -1.304000000    -3.833000000
H    -5.291000000    -0.917000000    -4.453000000
H    -5.136000000    -2.060000000    -3.473000000
O    -0.938000000     4.755000000    -2.355000000
H    -0.739000000     5.037000000    -1.462000000
H    -1.731000000     4.227000000    -2.268000000
O     3.405000000     3.875000000    -0.756000000
H     3.486000000     4.784000000    -1.046000000
H     2.605000000     3.861000000    -0.231000000
O     0.404000000    -6.034000000     1.688000000
H     1.332000000    -5.906000000     1.493000000
H     0.084000000    -5.160000000     1.913000000
O    -2.762000000    -5.211000000    -4.402000000
H    -2.897000000    -6.092000000    -4.053000000
H    -2.347000000    -4.731000000    -3.685000000
O     0.668000000     1.906000000     4.028000000
H     0.086000000     1.537000000     3.364000000
H     0.754000000     1.213000000     4.683000000
O     3.639000000    -4.033000000     0.744000000
H     2.873000000    -3.734000000     1.234000000
H     4.357000000    -3.487000000     1.065000000
O    -1.534000000    -4.012000000    -2.542000000
H    -1.884000000    -4.435000000    -1.758000000
H    -0.589000000    -4.160000000    -2.491000000
O    -1.388000000     1.004000000     2.270000000
H    -1.117000000     0.618000000     1.437000000
H    -1.915000000     0.323000000     2.689000000
O    -4.813000000     6.304000000    -3.254000000
H    -4.219000000     6.935000000    -3.659000000
H    -4.374000000     5.460000000    -3.358000000
O     4.599000000     0.213000000     1.037000000
H     4.266000000     0.516000000     1.882000000
H     4.875000000    -0.689000000     1.198000000
O     0.096000000     3.039000000    -4.463000000
H     1.040000000     2.991000000    -4.309000000
H    -0.217000000     3.686000000    -3.831000000
O    -4.487000000    -2.830000000    -0.146000000
H    -3.793000000    -3.486000000    -0.086000000
H    -4.889000000    -2.985000000    -1.001000000
O    -1.501000000     5.667000000     0.121000000
H    -1.957000000     4.922000000     0.512000000
H    -2.126000000     6.390000000     0.182000000
O     3.200000000    -2.392000000     4.122000000
H     2.738000000    -2.830000000     3.408000000
H     3.600000000    -3.104000000     4.622000000
O     2.604000000     1.539000000    -2.891000000
H     3.010000000     1.950000000    -2.128000000
H     2.504000000     2.252000000    -3.522000000
O    -2.653000000     5.016000000    -4.999000000
H    -2.444000000     5.947000000    -4.928000000
H    -2.248000000     4.620000000    -4.228000000
O    -4.658000000    -6.591000000     3.122000000
H    -3.906000000    -6.037000000     2.914000000
H    -4.279000000    -7.451000000     3.305000000
O     1.238000000     5.874000000    -3.299000000
H     0.488000000     5.335000000    -3.048000000
H     1.000000000     6.759000000    -3.020000000
O    -2.025000000    -1.010000000    -4.065000000
H    -2.928000000    -1.309000000    -4.164000000
H    -1.721000000    -1.428000000    -3.259000000
O    -0.893000000     3.698000000    -7.544000000
H    -0.654000000     3.584000000    -6.624000000
H    -1.127000000     2.820000000    -7.842000000
O    -4.270000000    -0.399000000     0.904000000
H    -4.204000000    -1.340000000     0.738000000
H    -4.442000000    -0.015000000     0.045000000
O     5.978000000    -2.352000000     1.471000000
H     6.073000000    -2.258000000     2.419000000
H     6.874000000    -2.450000000     1.149000000
O     1.202000000    -0.561000000     5.232000000
H     1.670000000    -1.307000000     4.857000000
H     1.266000000    -0.689000000     6.179000000
O    -2.484000000    -4.751000000    -0.134000000
H    -2.234000000    -5.653000000     0.064000000
H    -1.762000000    -4.222000000     0.206000000
O     3.911000000    -5.395000000     4.865000000
H     3.211000000    -5.996000000     4.611000000
H     4.528000000    -5.938000000     5.355000000
O    -2.464000000     1.817000000    -5.517000000
H    -2.030000000     2.571000000    -5.117000000
H    -2.316000000     1.100000000    -4.900000000
O     2.884000000     3.810000000    -4.534000000
H     3.779000000     4.132000000    -4.642000000
H     2.444000000     4.492000000    -4.027000000
O     0.355000000    -1.273000000    -5.384000000
H    -0.552000000    -1.136000000    -5.109000000
H     0.841000000    -1.375000000    -4.566000000
O     3.554000000     0.627000000     3.488000000
H     3.563000000    -0.274000000     3.810000000
H     2.636000000     0.891000000     3.542000000
O    -2.467000000    -4.696000000     3.088000000
H    -1.841000000    -4.539000000     2.381000000
H    -3.168000000    -4.063000000     2.932000000
O     3.206000000    -6.250000000     2.164000000
H     3.392000000    -5.406000000     1.752000000
H     4.041000000    -6.718000000     2.139000000
O    -0.482000000    -4.868000000     5.145000000
H    -0.997000000    -5.231000000     4.424000000
H     0.398000000    -4.766000000     4.783000000
O     1.602000000    -3.852000000    -1.751000000
H     1.726000000    -3.744000000    -0.808000000
H     1.489000000    -2.960000000    -2.081000000
O     2.076000000     4.285000000     2.819000000
H     2.100000000     3.362000000     3.072000000
H     2.925000000     4.631000000     3.096000000
O    -1.467000000    -2.498000000     5.969000000
H    -0.645000000    -2.154000000     6.319000000
H    -1.263000000    -3.400000000     5.722000000
O     3.822000000     0.098000000    -5.092000000
H     3.633000000     0.433000000    -4.216000000
H     4.673000000    -0.332000000    -5.005000000
O     1.119000000    -0.950000000    -2.618000000
H     1.710000000    -0.197000000    -2.613000000
H     0.712000000    -0.942000000    -1.752000000
O    -1.609000000     4.059000000     2.390000000
H    -1.196000000     4.150000000     3.249000000
H    -1.741000000     3.117000000     2.287000000
O     1.050000000     4.659000000     0.361000000
H     1.295000000     4.609000000     1.285000000
H     0.237000000     5.165000000     0.356000000
O    -4.650000000     4.524000000     0.402000000
H    -4.726000000     4.589000000     1.355000000
H    -4.762000000     5.423000000     0.092000000
O    -2.492000000    -1.307000000     3.677000000
H    -1.962000000    -1.704000000     4.368000000
H    -3.218000000    -1.918000000     3.551000000
O     5.467000000     2.187000000    -0.590000000
H     4.792000000     2.844000000    -0.763000000
H     5.102000000     1.648000000     0.111000000
O    -5.275000000     0.997000000    -1.904000000
H    -6.189000000     1.280000000    -1.914000000
H    -5.233000000     0.301000000    -2.559000000
