158
-3004.50324
C    -0.923000000    -0.796000000     0.771000000
H    -1.717000000    -1.482000000     1.055000000
C    -1.265000000     0.291000000    -0.013000000
H    -2.304000000     0.514000000    -0.240000000
C    -0.280000000     0.906000000    -0.775000000
H    -0.582000000     1.753000000    -1.441000000
C     1.055000000     0.635000000    -0.482000000
H     1.753000000     1.193000000    -1.101000000
C     1.394000000    -0.405000000     0.430000000
H     2.467000000    -0.502000000     0.574000000
C     0.408000000    -1.057000000     1.190000000
C     0.729000000    -2.309000000     1.930000000
O    -0.202000000    -2.895000000     2.450000000
O     1.843000000    -2.811000000     2.012000000
O     5.143000000    -6.180000000    -0.063000000
H     4.644000000    -6.461000000    -0.830000000
H     4.956000000    -5.245000000     0.015000000
O     0.266000000    -0.927000000    -6.176000000
H    -0.552000000    -1.423000000    -6.143000000
H     0.447000000    -0.827000000    -7.111000000
O     5.352000000    -2.758000000    -1.757000000
H     4.678000000    -3.109000000    -1.175000000
H     4.918000000    -2.041000000    -2.220000000
O    -4.320000000     2.717000000    -1.691000000
H    -3.955000000     3.098000000    -2.490000000
H    -4.364000000     1.778000000    -1.872000000
O    -4.096000000    -2.201000000    -1.299000000
H    -4.860000000    -2.768000000    -1.406000000
H    -3.417000000    -2.778000000    -0.950000000
O    -3.189000000     4.301000000     0.354000000
H    -3.545000000     5.093000000    -0.048000000
H    -3.107000000     3.680000000    -0.371000000
O     1.731000000    -5.672000000     2.331000000
H     2.441000000    -5.509000000     2.952000000
H     1.502000000    -4.805000000     1.996000000
O     0.718000000     1.270000000     4.738000000
H     0.206000000     0.471000000     4.609000000
H     1.491000000     0.983000000     5.224000000
O    -6.047000000     4.808000000    -1.861000000
H    -5.251000000     4.276000000    -1.854000000
H    -5.732000000     5.710000000    -1.796000000
O     4.200000000    -3.606000000     0.660000000
H     3.480000000    -3.443000000     1.270000000
H     4.986000000    -3.353000000     1.145000000
O    -1.582000000    -3.438000000    -1.042000000
H    -1.530000000    -3.346000000    -0.091000000
H    -1.667000000    -4.381000000    -1.187000000
O    -1.843000000     1.284000000     2.776000000
H    -1.348000000     1.128000000     1.972000000
H    -1.374000000     0.788000000     3.447000000
O    -3.619000000     4.196000000    -4.027000000
H    -3.319000000     5.102000000    -3.947000000
H    -4.524000000     4.270000000    -4.329000000
O     6.043000000    -0.034000000     2.152000000
H     6.317000000    -0.203000000     3.053000000
H     5.347000000     0.618000000     2.232000000
O     0.532000000     2.839000000    -4.078000000
H     1.152000000     2.892000000    -3.351000000
H     0.056000000     3.669000000    -4.047000000
O    -4.270000000    -4.023000000     2.170000000
H    -3.528000000    -4.613000000     2.034000000
H    -5.041000000    -4.575000000     2.039000000
O    -3.625000000     1.441000000    -4.222000000
H    -3.633000000     2.242000000    -4.746000000
H    -2.702000000     1.193000000    -4.177000000
O     3.422000000    -1.532000000     3.717000000
H     2.890000000    -2.058000000     3.119000000
H     4.025000000    -1.056000000     3.147000000
O     4.362000000    -0.667000000    -2.915000000
H     3.734000000     0.013000000    -2.672000000
H     4.788000000    -0.329000000    -3.702000000
O     0.035000000     5.591000000    -3.895000000
H    -0.820000000     5.897000000    -4.197000000
H     0.186000000     6.068000000    -3.079000000
O     1.396000000     5.548000000    -0.544000000
H     0.672000000     4.991000000    -0.829000000
H     1.140000000     6.430000000    -0.812000000
O    -2.764000000    -1.692000000    -3.617000000
H    -3.243000000    -1.533000000    -2.804000000
H    -2.235000000    -0.903000000    -3.741000000
O    -0.668000000     3.258000000    -7.299000000
H    -1.355000000     3.061000000    -6.662000000
H     0.114000000     2.831000000    -6.948000000
O    -4.234000000     0.212000000     2.956000000
H    -4.507000000     0.870000000     3.596000000
H    -3.364000000     0.496000000     2.676000000
O     6.323000000    -3.219000000     2.245000000
H     6.298000000    -3.761000000     3.033000000
H     7.149000000    -2.739000000     2.310000000
O     3.486000000     0.684000000     5.660000000
H     3.943000000     0.040000000     6.200000000
H     3.757000000     0.481000000     4.765000000
O     1.775000000     1.816000000    -6.274000000
H     1.478000000     2.126000000    -5.419000000
H     1.790000000     0.863000000    -6.193000000
O    -1.717000000    -4.873000000     1.496000000
H    -1.484000000    -5.770000000     1.735000000
H    -1.088000000    -4.329000000     1.970000000
O    -1.167000000     0.668000000    -4.391000000
H    -0.792000000     1.545000000    -4.310000000
H    -0.439000000     0.123000000    -4.691000000
O     2.565000000     3.874000000    -2.490000000
H     3.101000000     4.440000000    -3.046000000
H     2.745000000     4.173000000    -1.599000000
O    -3.380000000    -3.316000000     4.645000000
H    -4.140000000    -3.485000000     5.202000000
H    -3.716000000    -3.398000000     3.752000000
O    -0.945000000    -3.994000000     4.958000000
H    -0.456000000    -3.575000000     4.250000000
H    -1.825000000    -3.623000000     4.894000000
O     3.746000000    -4.901000000     3.902000000
H     3.934000000    -3.963000000     3.874000000
H     4.445000000    -5.269000000     4.442000000
O     1.677000000    -4.512000000     5.675000000
H     0.776000000    -4.439000000     5.360000000
H     2.176000000    -4.794000000     4.909000000
O    -6.176000000    -1.705000000     1.372000000
H    -5.840000000    -0.934000000     1.829000000
H    -5.477000000    -2.354000000     1.453000000
O     1.654000000    -5.348000000    -0.573000000
H     1.952000000    -5.724000000     0.255000000
H     1.472000000    -4.431000000    -0.368000000
O     6.453000000     1.040000000    -1.530000000
H     5.634000000     1.511000000    -1.373000000
H     6.356000000     0.223000000    -1.041000000
O     4.067000000     1.794000000     2.870000000
H     3.121000000     1.793000000     3.011000000
H     4.333000000     2.699000000     3.032000000
O    -1.036000000    -3.151000000     7.498000000
H    -0.558000000    -3.873000000     7.906000000
H    -0.789000000    -3.193000000     6.574000000
O    -0.725000000     7.123000000    -1.528000000
H    -1.209000000     7.915000000    -1.760000000
H    -0.756000000     7.095000000    -0.571000000
O     2.385000000    -4.142000000    -3.413000000
H     2.245000000    -3.511000000    -2.707000000
H     3.168000000    -4.625000000    -3.151000000
O     0.910000000    -2.524000000    -1.704000000
H     0.869000000    -1.693000000    -1.232000000
H     0.020000000    -2.871000000    -1.655000000
O    -3.407000000     3.542000000     2.807000000
H    -3.369000000     3.852000000     1.902000000
H    -2.660000000     2.950000000     2.890000000
O    -0.673000000     4.526000000     1.858000000
H    -1.568000000     4.355000000     1.565000000
H    -0.478000000     5.405000000     1.532000000
O    -6.144000000     2.237000000     0.746000000
H    -5.351000000     1.743000000     0.955000000
H    -5.968000000     2.618000000    -0.115000000
O    -0.948000000    -0.850000000     4.050000000
H    -1.725000000    -1.077000000     4.561000000
H    -0.750000000    -1.643000000     3.551000000
O     4.078000000     2.022000000    -0.354000000
H     4.746000000     2.348000000     0.250000000
H     3.268000000     2.035000000     0.156000000
O    -5.351000000     0.063000000    -1.782000000
H    -6.220000000    -0.159000000    -1.449000000
H    -4.796000000    -0.668000000    -1.507000000
