158
-3049.60191
C    -1.361000000    -0.345000000    -0.353000000
H    -2.350000000    -0.561000000    -0.750000000
C    -0.571000000     0.619000000    -1.003000000
H    -1.010000000     1.116000000    -1.864000000
C     0.711000000     0.869000000    -0.573000000
H     1.266000000     1.645000000    -1.112000000
C     1.182000000     0.166000000     0.567000000
H     2.140000000     0.435000000     1.003000000
C     0.449000000    -0.921000000     1.079000000
H     0.759000000    -1.529000000     1.925000000
C    -0.863000000    -1.113000000     0.722000000
C    -1.798000000    -2.044000000     1.424000000
O    -2.825000000    -2.414000000     0.869000000
O    -1.419000000    -2.562000000     2.486000000
O     4.750000000     3.969000000    -0.986000000
H     3.959000000     3.513000000    -1.272000000
H     4.487000000     4.426000000    -0.187000000
O     1.814000000     4.244000000     0.691000000
H     2.492000000     4.890000000     0.890000000
H     1.894000000     4.095000000    -0.251000000
O    -2.220000000     5.854000000    -0.588000000
H    -2.205000000     4.957000000    -0.255000000
H    -3.074000000     5.938000000    -1.013000000
O     0.444000000     2.276000000    -4.603000000
H     1.307000000     2.121000000    -4.219000000
H     0.627000000     2.698000000    -5.443000000
O    -4.329000000     0.890000000    -2.640000000
H    -3.654000000     1.379000000    -3.109000000
H    -4.286000000     1.223000000    -1.743000000
O     3.915000000     5.768000000     1.360000000
H     3.680000000     6.637000000     1.686000000
H     4.129000000     5.266000000     2.147000000
O    -3.049000000     1.810000000     1.742000000
H    -3.516000000     0.975000000     1.694000000
H    -2.940000000     1.969000000     2.679000000
O     2.803000000     6.310000000    -3.041000000
H     3.589000000     5.959000000    -2.623000000
H     3.040000000     6.392000000    -3.965000000
O    -2.988000000    -4.006000000    -1.244000000
H    -2.123000000    -4.120000000    -1.638000000
H    -2.825000000    -3.491000000    -0.453000000
O     0.775000000     1.345000000     4.552000000
H     0.018000000     0.861000000     4.222000000
H     0.517000000     2.265000000     4.490000000
O     3.157000000     1.765000000    -4.059000000
H     3.918000000     1.539000000    -3.524000000
H     3.506000000     1.857000000    -4.945000000
O    -5.613000000    -1.289000000    -3.823000000
H    -4.762000000    -0.939000000    -3.560000000
H    -6.134000000    -0.516000000    -4.039000000
O     3.548000000     1.407000000     3.931000000
H     2.742000000     0.914000000     4.087000000
H     4.125000000     1.157000000     4.652000000
O     5.715000000     0.763000000     1.823000000
H     4.880000000     0.413000000     2.133000000
H     6.352000000     0.079000000     2.027000000
O     1.185000000    -0.862000000     6.192000000
H     1.086000000    -0.276000000     5.442000000
H     1.115000000    -0.287000000     6.955000000
O    -0.994000000    -3.034000000    -4.674000000
H    -1.090000000    -2.083000000    -4.724000000
H    -0.538000000    -3.186000000    -3.846000000
O    -4.007000000     0.007000000     4.638000000
H    -3.060000000    -0.124000000     4.678000000
H    -4.307000000    -0.138000000     5.536000000
O     6.168000000    -0.356000000    -4.610000000
H     6.325000000     0.496000000    -5.018000000
H     5.711000000    -0.150000000    -3.795000000
O    -1.663000000    -5.193000000     1.303000000
H    -2.002000000    -4.309000000     1.444000000
H    -2.169000000    -5.528000000     0.563000000
O    -4.744000000    -6.226000000     0.309000000
H    -5.423000000    -6.581000000    -0.265000000
H    -3.936000000    -6.644000000     0.011000000
O    -0.251000000    -0.445000000    -4.292000000
H    -0.141000000     0.501000000    -4.189000000
H     0.638000000    -0.775000000    -4.424000000
O     1.266000000    -4.499000000     5.317000000
H     0.522000000    -4.248000000     5.864000000
H     2.029000000    -4.147000000     5.775000000
O     1.027000000    -4.449000000     0.713000000
H     0.965000000    -5.297000000     0.272000000
H     0.168000000    -4.327000000     1.118000000
O    -4.723000000    -0.348000000     1.210000000
H    -5.461000000    -0.880000000     0.913000000
H    -3.972000000    -0.940000000     1.177000000
O     6.023000000     3.298000000     3.430000000
H     6.097000000     2.946000000     4.317000000
H     5.689000000     2.567000000     2.910000000
O    -2.814000000    -3.488000000     4.601000000
H    -2.016000000    -3.508000000     5.129000000
H    -2.528000000    -3.158000000     3.749000000
O    -0.874000000    -6.152000000     4.038000000
H    -1.377000000    -5.353000000     4.199000000
H    -1.075000000    -6.383000000     3.131000000
O    -0.962000000    -0.868000000     4.375000000
H    -0.284000000    -1.405000000     4.785000000
H    -1.303000000    -1.412000000     3.665000000
O     4.415000000    -0.790000000    -0.414000000
H     4.560000000    -1.061000000     0.492000000
H     3.756000000    -1.399000000    -0.745000000
O     2.544000000     4.052000000     3.511000000
H     1.896000000     4.161000000     2.816000000
H     2.736000000     3.114000000     3.515000000
O    -5.844000000     1.111000000     3.031000000
H    -5.577000000     0.695000000     2.211000000
H    -5.212000000     0.794000000     3.677000000
O     4.689000000    -1.995000000     2.430000000
H     3.810000000    -2.328000000     2.611000000
H     5.207000000    -2.263000000     3.189000000
O     2.169000000     3.795000000    -1.998000000
H     2.110000000     4.650000000    -2.426000000
H     2.687000000     3.261000000    -2.600000000
O    -4.651000000     2.547000000    -0.426000000
H    -4.660000000     3.493000000    -0.281000000
H    -3.898000000     2.235000000     0.076000000
O     2.259000000    -2.357000000    -1.166000000
H     1.746000000    -1.557000000    -1.281000000
H     1.703000000    -2.924000000    -0.632000000
O    -5.977000000    -4.815000000     3.888000000
H    -5.515000000    -4.488000000     3.117000000
H    -5.663000000    -5.714000000     3.992000000
O     5.033000000     0.893000000    -2.535000000
H     5.650000000     1.547000000    -2.207000000
H     4.695000000     0.467000000    -1.748000000
O     2.573000000    -3.555000000     3.009000000
H     2.066000000    -3.770000000     2.226000000
H     2.087000000    -3.960000000     3.727000000
O    -0.897000000    -3.640000000     6.779000000
H    -1.565000000    -4.018000000     7.350000000
H    -0.242000000    -3.283000000     7.379000000
O    -2.601000000     4.925000000    -4.547000000
H    -1.668000000     5.122000000    -4.466000000
H    -2.647000000     3.969000000    -4.519000000
O    -4.898000000    -5.542000000    -2.531000000
H    -4.303000000    -5.159000000    -1.886000000
H    -4.928000000    -4.900000000    -3.240000000
O    -0.282000000     5.080000000    -2.921000000
H    -0.664000000     4.859000000    -2.071000000
H     0.348000000     4.379000000    -3.090000000
O    -1.374000000     3.347000000     0.056000000
H    -0.772000000     2.688000000    -0.291000000
H    -1.873000000     2.885000000     0.729000000
O    -5.073000000    -2.660000000     5.809000000
H    -4.195000000    -2.816000000     5.463000000
H    -5.654000000    -3.133000000     5.213000000
O    -4.991000000    -3.806000000     1.456000000
H    -4.847000000    -4.601000000     0.943000000
H    -4.341000000    -3.186000000     1.126000000
O    -2.481000000     2.064000000    -4.536000000
H    -1.556000000     2.029000000    -4.780000000
H    -2.923000000     1.529000000    -5.195000000
O    -7.862000000    -3.652000000     0.935000000
H    -8.209000000    -4.537000000     0.822000000
H    -6.938000000    -3.784000000     1.149000000
O    -0.527000000     4.577000000     2.559000000
H    -0.096000000     4.499000000     1.708000000
H    -0.438000000     5.502000000     2.788000000
