158
-3022.32381
C    -1.170000000    -0.636000000    -0.582000000
H    -2.103000000    -1.027000000    -0.979000000
C    -1.153000000     0.612000000     0.042000000
H    -2.132000000     1.080000000     0.115000000
C     0.055000000     1.162000000     0.464000000
H     0.113000000     2.153000000     0.990000000
C     1.236000000     0.377000000     0.299000000
H     2.148000000     0.798000000     0.713000000
C     1.159000000    -0.903000000    -0.171000000
H     2.102000000    -1.430000000    -0.051000000
C    -0.060000000    -1.494000000    -0.622000000
C    -0.170000000    -2.906000000    -1.178000000
O     0.858000000    -3.476000000    -1.537000000
O    -1.281000000    -3.279000000    -1.425000000
O    -1.238000000    -2.758000000    -5.331000000
H    -0.388000000    -3.109000000    -5.066000000
H    -1.063000000    -1.840000000    -5.541000000
O     3.194000000     4.098000000     3.438000000
H     2.566000000     4.713000000     3.060000000
H     2.875000000     3.946000000     4.328000000
O     6.927000000     2.277000000    -1.116000000
H     6.432000000     3.090000000    -1.016000000
H     6.304000000     1.587000000    -0.887000000
O     0.256000000    -1.512000000     4.005000000
H     0.097000000    -1.334000000     3.078000000
H    -0.137000000    -0.769000000     4.463000000
O     1.722000000     4.987000000     5.823000000
H     1.473000000     5.573000000     5.109000000
H     1.168000000     5.253000000     6.556000000
O     0.783000000     5.989000000     3.405000000
H    -0.144000000     6.109000000     3.608000000
H     0.918000000     6.486000000     2.598000000
O    -1.697000000     3.102000000     3.698000000
H    -2.069000000     3.629000000     4.406000000
H    -2.036000000     2.220000000     3.853000000
O    -2.905000000    -4.499000000     0.267000000
H    -2.282000000    -4.804000000     0.926000000
H    -2.362000000    -4.080000000    -0.401000000
O    -4.485000000     2.760000000     1.069000000
H    -4.833000000     2.068000000     1.631000000
H    -4.996000000     2.692000000     0.262000000
O     2.559000000    -7.574000000    -2.534000000
H     2.313000000    -8.378000000    -2.990000000
H     1.762000000    -7.044000000    -2.535000000
O    -4.601000000    -0.121000000    -2.333000000
H    -4.013000000    -0.847000000    -2.542000000
H    -4.964000000    -0.345000000    -1.476000000
O    -2.736000000     4.500000000     1.645000000
H    -3.567000000     4.047000000     1.503000000
H    -2.324000000     4.025000000     2.367000000
O    -0.807000000    -7.286000000    -4.805000000
H    -0.927000000    -6.607000000    -4.141000000
H     0.071000000    -7.631000000    -4.638000000
O     3.653000000     2.280000000    -1.048000000
H     4.103000000     2.733000000    -0.334000000
H     3.701000000     1.354000000    -0.812000000
O     6.763000000    -2.754000000     0.212000000
H     7.373000000    -3.374000000     0.612000000
H     6.035000000    -2.701000000     0.831000000
O    -4.030000000    -2.582000000     2.137000000
H    -3.671000000    -1.695000000     2.141000000
H    -3.658000000    -2.987000000     1.354000000
O    -2.220000000     7.185000000     1.413000000
H    -2.302000000     6.260000000     1.181000000
H    -2.324000000     7.204000000     2.364000000
O     2.998000000    -1.245000000     3.385000000
H     2.129000000    -1.105000000     3.762000000
H     3.591000000    -0.769000000     3.967000000
O    -3.226000000    -2.370000000    -3.101000000
H    -2.641000000    -2.940000000    -2.601000000
H    -2.710000000    -2.107000000    -3.863000000
O    -2.086000000     2.323000000    -2.489000000
H    -2.308000000     2.850000000    -3.256000000
H    -2.800000000     1.689000000    -2.419000000
O    -4.199000000     1.222000000    -4.718000000
H    -4.559000000     2.094000000    -4.556000000
H    -4.459000000     0.710000000    -3.952000000
O     2.308000000    -4.395000000    -3.804000000
H     2.123000000    -3.717000000    -4.455000000
H     1.739000000    -4.179000000    -3.066000000
O     1.260000000     4.167000000    -0.619000000
H     1.717000000     3.326000000    -0.595000000
H     0.352000000     3.940000000    -0.819000000
O    -1.656000000    -0.122000000     5.217000000
H    -2.556000000    -0.410000000     5.374000000
H    -1.497000000     0.542000000     5.887000000
O     0.766000000     2.563000000     6.559000000
H     1.063000000     2.097000000     5.778000000
H     1.121000000     3.446000000     6.460000000
O     3.645000000    -2.576000000    -1.581000000
H     2.850000000    -3.099000000    -1.477000000
H     4.190000000    -2.817000000    -0.832000000
O    -3.483000000    -5.640000000    -4.667000000
H    -2.844000000    -5.964000000    -4.032000000
H    -4.062000000    -6.386000000    -4.826000000
O    -5.282000000     0.991000000     3.067000000
H    -5.183000000     1.532000000     3.851000000
H    -5.819000000     0.252000000     3.353000000
O    -1.545000000     4.591000000    -0.740000000
H    -2.031000000     4.598000000     0.085000000
H    -1.814000000     3.779000000    -1.169000000
O     0.266000000     1.192000000    -2.977000000
H    -0.591000000     1.605000000    -2.867000000
H     0.663000000     1.229000000    -2.107000000
O     3.397000000     0.217000000     5.649000000
H     2.639000000     0.605000000     5.211000000
H     3.042000000    -0.153000000     6.458000000
O    -5.510000000    -0.853000000     0.106000000
H    -5.055000000    -0.765000000     0.944000000
H    -6.348000000    -1.256000000     0.330000000
O    -1.513000000    -5.557000000    -2.585000000
H    -2.299000000    -5.737000000    -2.069000000
H    -1.195000000    -4.718000000    -2.251000000
O    -3.045000000    -0.048000000     2.031000000
H    -2.291000000     0.409000000     1.659000000
H    -3.542000000     0.635000000     2.480000000
O     1.430000000     1.923000000     4.088000000
H     2.233000000     2.169000000     3.630000000
H     0.729000000     2.331000000     3.578000000
O     5.160000000     4.094000000     0.441000000
H     5.491000000     3.985000000     1.333000000
H     5.187000000     5.039000000     0.290000000
O    -4.285000000    -6.439000000    -1.600000000
H    -4.365000000    -6.403000000    -0.647000000
H    -4.548000000    -5.568000000    -1.895000000
O     3.561000000    -0.672000000    -3.525000000
H     3.238000000    -1.488000000    -3.143000000
H     3.863000000    -0.159000000    -2.775000000
O     2.287000000     6.552000000     0.997000000
H     1.922000000     5.859000000     0.447000000
H     3.103000000     6.798000000     0.562000000
O     5.425000000     0.075000000    -0.268000000
H     5.055000000    -0.153000000     0.585000000
H     5.917000000    -0.704000000    -0.531000000
O     4.242000000    -2.566000000     1.182000000
H     3.973000000    -3.481000000     1.253000000
H     3.919000000    -2.159000000     1.986000000
O     1.922000000    -4.491000000     0.701000000
H     1.668000000    -3.947000000    -0.045000000
H     1.114000000    -4.932000000     0.962000000
O    -0.510000000     7.242000000    -0.674000000
H    -1.169000000     7.215000000     0.020000000
H    -0.232000000     6.332000000    -0.775000000
O    -0.593000000    -5.379000000     1.632000000
H    -0.667000000    -5.022000000     2.517000000
H    -0.821000000    -6.304000000     1.726000000
O     5.749000000     3.816000000     3.265000000
H     6.086000000     3.003000000     3.642000000
H     4.842000000     3.861000000     3.566000000
O     3.938000000    -6.366000000    -0.256000000
H     3.405000000    -5.589000000    -0.084000000
H     3.504000000    -6.795000000    -0.994000000
O    -5.459000000    -4.068000000    -2.454000000
H    -6.303000000    -3.812000000    -2.826000000
H    -4.826000000    -3.484000000    -2.873000000
O     1.927000000     5.681000000    -2.817000000
H     2.301000000     5.021000000    -3.400000000
H     1.549000000     5.178000000    -2.096000000
