158
-3019.06270
C    -1.117000000    -0.862000000     0.393000000
H    -2.022000000    -1.406000000     0.648000000
C    -1.256000000     0.275000000    -0.487000000
H    -2.163000000     0.474000000    -1.053000000
C    -0.030000000     0.937000000    -0.807000000
H    -0.038000000     1.618000000    -1.637000000
C     1.141000000     0.646000000    -0.055000000
H     2.021000000     1.182000000    -0.401000000
C     1.154000000    -0.360000000     0.861000000
H     2.030000000    -0.522000000     1.484000000
C     0.054000000    -1.133000000     1.079000000
C    -0.012000000    -2.220000000     2.104000000
O    -0.775000000    -3.147000000     1.895000000
O     0.959000000    -2.232000000     2.954000000
O     3.851000000     6.007000000    -0.608000000
H     3.507000000     5.985000000    -1.501000000
H     4.198000000     5.126000000    -0.464000000
O    -0.725000000     4.042000000     1.475000000
H    -0.089000000     4.588000000     1.013000000
H    -0.194000000     3.386000000     1.927000000
O    -5.053000000     2.942000000     2.154000000
H    -5.134000000     2.579000000     1.272000000
H    -4.217000000     2.606000000     2.476000000
O    -0.140000000     3.450000000    -4.577000000
H    -0.697000000     3.683000000    -3.833000000
H     0.393000000     4.230000000    -4.729000000
O     4.369000000     3.087000000    -4.966000000
H     4.313000000     3.201000000    -5.915000000
H     3.702000000     3.676000000    -4.614000000
O    -2.757000000     1.330000000     2.486000000
H    -2.507000000     1.684000000     1.632000000
H    -2.022000000     0.771000000     2.738000000
O    -2.423000000    -7.868000000     1.365000000
H    -2.235000000    -7.818000000     2.303000000
H    -1.964000000    -7.117000000     0.989000000
O    -0.476000000    -0.019000000     6.600000000
H    -1.083000000     0.690000000     6.810000000
H     0.370000000     0.414000000     6.484000000
O    -4.066000000    -2.747000000    -1.426000000
H    -4.752000000    -3.082000000    -2.002000000
H    -3.531000000    -3.513000000    -1.219000000
O     5.887000000    -0.275000000    -1.090000000
H     5.820000000     0.338000000    -0.358000000
H     4.979000000    -0.454000000    -1.336000000
O     1.913000000    -6.353000000     1.307000000
H     2.686000000    -6.669000000     0.838000000
H     2.152000000    -6.415000000     2.232000000
O     2.854000000     2.372000000     4.895000000
H     2.462000000     1.594000000     5.291000000
H     3.663000000     2.055000000     4.494000000
O     2.244000000    -3.833000000     0.812000000
H     1.924000000    -3.365000000     1.584000000
H     2.093000000    -4.757000000     1.013000000
O    -0.823000000     0.115000000     3.882000000
H    -1.010000000     0.120000000     4.821000000
H    -0.154000000    -0.562000000     3.775000000
O     5.192000000    -1.327000000     2.672000000
H     5.302000000    -0.377000000     2.639000000
H     5.746000000    -1.657000000     1.965000000
O     3.455000000    -1.066000000    -2.034000000
H     3.228000000    -0.271000000    -2.516000000
H     2.677000000    -1.620000000    -2.106000000
O    -3.608000000    -3.570000000     1.814000000
H    -2.679000000    -3.351000000     1.895000000
H    -3.673000000    -4.031000000     0.978000000
O    -4.008000000     2.862000000    -3.030000000
H    -4.368000000     1.984000000    -2.902000000
H    -3.980000000     2.973000000    -3.980000000
O     2.431000000     0.113000000     6.479000000
H     2.551000000    -0.823000000     6.315000000
H     2.379000000     0.184000000     7.432000000
O     0.719000000    -1.013000000    -3.445000000
H     0.383000000    -1.210000000    -2.571000000
H     0.741000000    -1.860000000    -3.891000000
O     0.749000000     5.973000000    -1.923000000
H     0.817000000     5.988000000    -0.968000000
H    -0.064000000     5.499000000    -2.098000000
O     2.300000000    -1.000000000    -5.998000000
H     2.398000000    -0.299000000    -5.353000000
H     2.281000000    -1.803000000    -5.478000000
O    -5.243000000    -0.743000000     1.684000000
H    -4.906000000    -1.581000000     1.368000000
H    -4.503000000    -0.141000000     1.604000000
O     3.882000000    -4.692000000    -1.170000000
H     4.253000000    -5.399000000    -0.642000000
H     3.238000000    -4.277000000    -0.595000000
O    -0.655000000    -5.658000000     0.542000000
H     0.232000000    -5.980000000     0.704000000
H    -0.673000000    -4.791000000     0.947000000
O    -3.343000000    -5.374000000    -0.342000000
H    -3.675000000    -6.193000000    -0.711000000
H    -2.412000000    -5.537000000    -0.196000000
O     0.551000000     2.853000000     3.650000000
H     0.203000000     1.982000000     3.458000000
H     1.377000000     2.687000000     4.103000000
O     3.059000000     0.876000000    -3.877000000
H     3.668000000     1.562000000    -4.148000000
H     2.231000000     1.112000000    -4.294000000
O    -4.493000000    -3.510000000     4.473000000
H    -5.039000000    -2.755000000     4.255000000
H    -3.950000000    -3.645000000     3.697000000
O     4.290000000    -4.586000000     4.100000000
H     4.980000000    -4.065000000     4.511000000
H     3.985000000    -4.046000000     3.370000000
O    -1.118000000    -2.591000000     7.196000000
H    -0.902000000    -1.680000000     6.994000000
H    -0.387000000    -3.095000000     6.838000000
O    -1.018000000    -4.949000000     4.088000000
H    -0.888000000    -4.326000000     3.374000000
H    -1.420000000    -5.711000000     3.670000000
O     0.791000000    -4.471000000     6.128000000
H     0.347000000    -4.534000000     5.282000000
H     0.699000000    -5.343000000     6.511000000
O     2.071000000    -6.420000000     4.028000000
H     1.812000000    -6.695000000     4.907000000
H     2.779000000    -5.792000000     4.172000000
O    -1.979000000     2.518000000    -6.928000000
H    -1.380000000     2.558000000    -6.183000000
H    -2.852000000     2.520000000    -6.534000000
O    -4.687000000    -0.336000000     5.015000000
H    -4.102000000    -0.158000000     4.279000000
H    -5.164000000     0.483000000     5.146000000
O     2.357000000    -2.358000000     5.330000000
H     1.992000000    -3.100000000     5.812000000
H     1.964000000    -2.420000000     4.460000000
O    -1.841000000     6.294000000     0.794000000
H    -1.927000000     5.374000000     1.041000000
H    -2.654000000     6.496000000     0.331000000
O     0.783000000    -3.132000000    -1.335000000
H     0.037000000    -3.532000000    -0.888000000
H     1.460000000    -3.070000000    -0.662000000
O     4.766000000     1.352000000     0.632000000
H     4.025000000     0.756000000     0.744000000
H     5.067000000     1.530000000     1.523000000
O    -1.797000000     4.794000000    -2.761000000
H    -2.166000000     5.380000000    -3.422000000
H    -2.456000000     4.109000000    -2.653000000
O    -2.261000000     0.096000000    -4.496000000
H    -1.323000000    -0.049000000    -4.373000000
H    -2.452000000     0.878000000    -3.978000000
O    -4.292000000     5.085000000     0.104000000
H    -5.154000000     4.803000000     0.410000000
H    -4.273000000     4.836000000    -0.820000000
O     4.436000000     3.514000000    -1.379000000
H     4.533000000     2.791000000    -1.999000000
H     4.335000000     3.088000000    -0.528000000
O     1.624000000     5.367000000     1.305000000
H     2.395000000     5.793000000     0.931000000
H     1.456000000     5.845000000     2.117000000
O    -5.490000000     1.776000000    -0.147000000
H    -4.980000000     1.216000000    -0.733000000
H    -6.227000000     2.073000000    -0.681000000
O    -4.745000000     0.120000000    -2.672000000
H    -5.665000000     0.040000000    -2.924000000
H    -4.334000000    -0.677000000    -3.007000000
O     2.853000000     6.196000000    -3.698000000
H     2.052000000     6.083000000    -3.186000000
H     2.620000000     6.837000000    -4.370000000
