158
-3017.12038
C     0.196000000    -1.053000000     1.024000000
H     0.198000000    -1.768000000     1.843000000
C    -1.050000000    -0.642000000     0.493000000
H    -1.995000000    -1.024000000     0.872000000
C    -1.075000000     0.374000000    -0.447000000
H    -1.973000000     0.670000000    -0.810000000
C     0.121000000     1.012000000    -0.859000000
H     0.054000000     1.922000000    -1.451000000
C     1.326000000     0.587000000    -0.379000000
H     2.245000000     1.098000000    -0.654000000
C     1.362000000    -0.396000000     0.669000000
C     2.701000000    -0.977000000     1.044000000
O     3.742000000    -0.572000000     0.589000000
O     2.627000000    -2.002000000     1.747000000
O     4.199000000     2.213000000     0.918000000
H     4.564000000     2.707000000     1.652000000
H     4.630000000     1.359000000     0.967000000
O    -4.644000000     5.485000000     0.479000000
H    -4.039000000     5.948000000     1.059000000
H    -4.076000000     4.991000000    -0.113000000
O    -2.272000000    -5.937000000     1.367000000
H    -2.580000000    -5.033000000     1.305000000
H    -2.001000000    -6.160000000     0.477000000
O     4.062000000    -1.014000000    -2.113000000
H     4.547000000    -1.838000000    -2.061000000
H     4.253000000    -0.571000000    -1.287000000
O     5.045000000     0.107000000     4.558000000
H     5.725000000     0.539000000     5.075000000
H     5.300000000     0.263000000     3.649000000
O     2.610000000     2.105000000    -5.004000000
H     2.437000000     3.046000000    -5.034000000
H     2.974000000     1.902000000    -5.866000000
O    -0.327000000     3.792000000     2.281000000
H     0.371000000     3.776000000     2.936000000
H    -0.814000000     2.981000000     2.430000000
O    -3.413000000    -3.379000000     0.788000000
H    -3.471000000    -2.554000000     0.306000000
H    -3.999000000    -3.262000000     1.535000000
O     1.587000000    -2.642000000     6.271000000
H     2.203000000    -2.229000000     5.666000000
H     1.093000000    -3.256000000     5.728000000
O     0.596000000     5.352000000    -2.137000000
H    -0.041000000     5.491000000    -1.437000000
H     1.106000000     4.594000000    -1.851000000
O     0.052000000     1.164000000     5.083000000
H    -0.583000000     1.410000000     4.410000000
H    -0.387000000     0.478000000     5.586000000
O     0.200000000     0.380000000    -4.308000000
H    -0.029000000    -0.247000000    -3.622000000
H     1.108000000     0.617000000    -4.122000000
O    -3.492000000    -0.591000000     4.275000000
H    -2.800000000    -0.753000000     4.918000000
H    -4.133000000    -0.057000000     4.743000000
O     4.641000000     1.813000000    -2.724000000
H     4.741000000     0.861000000    -2.710000000
H     4.125000000     1.988000000    -3.512000000
O     2.894000000    -2.763000000    -4.083000000
H     1.992000000    -2.451000000    -4.020000000
H     3.369000000    -2.258000000    -3.423000000
O    -1.303000000    -0.716000000     6.466000000
H    -0.875000000    -1.568000000     6.383000000
H    -1.789000000    -0.771000000     7.289000000
O    -4.997000000    -2.608000000     2.803000000
H    -5.394000000    -3.390000000     3.186000000
H    -4.663000000    -2.117000000     3.553000000
O    -7.230000000    -1.592000000     0.885000000
H    -7.879000000    -2.289000000     0.979000000
H    -6.445000000    -1.937000000     1.311000000
O     7.336000000    -4.145000000     3.108000000
H     8.095000000    -3.769000000     2.663000000
H     6.582000000    -3.742000000     2.678000000
O     8.947000000     0.540000000    -0.073000000
H     8.359000000     0.000000000     0.456000000
H     9.111000000     1.314000000     0.466000000
O     2.724000000     3.776000000    -0.736000000
H     3.355000000     4.068000000    -1.394000000
H     3.177000000     3.079000000    -0.262000000
O     0.290000000    -4.694000000    -1.894000000
H     0.115000000    -5.558000000    -1.520000000
H    -0.401000000    -4.570000000    -2.544000000
O    -0.490000000    -4.676000000     3.893000000
H    -0.400000000    -4.432000000     2.972000000
H    -0.268000000    -5.607000000     3.917000000
O     6.693000000     2.399000000    -0.685000000
H     6.918000000     1.899000000    -1.470000000
H     5.737000000     2.378000000    -0.654000000
O    -4.866000000     3.663000000    -6.167000000
H    -3.990000000     3.385000000    -6.436000000
H    -4.925000000     3.412000000    -5.245000000
O     2.932000000     5.782000000     1.201000000
H     2.321000000     6.443000000     0.875000000
H     2.600000000     4.955000000     0.849000000
O    -1.070000000     5.415000000     0.184000000
H    -1.005000000     4.781000000     0.898000000
H    -1.219000000     6.254000000     0.621000000
O     4.976000000    -3.050000000     1.796000000
H     4.091000000    -2.684000000     1.789000000
H     5.164000000    -3.240000000     0.877000000
O     5.027000000    -4.008000000     4.920000000
H     4.464000000    -3.391000000     4.452000000
H     5.900000000    -3.858000000     4.559000000
O     6.555000000    -0.743000000     0.822000000
H     5.614000000    -0.690000000     0.654000000
H     6.706000000    -1.661000000     1.047000000
O    -6.864000000    -0.366000000    -1.940000000
H    -6.914000000    -0.590000000    -1.011000000
H    -7.143000000    -1.161000000    -2.393000000
O    -6.869000000     3.989000000     0.614000000
H    -6.267000000     4.727000000     0.525000000
H    -7.401000000     4.015000000    -0.181000000
O     1.146000000    -4.454000000     0.928000000
H     0.937000000    -4.185000000     0.034000000
H     1.664000000    -3.731000000     1.282000000
O    -5.384000000    -0.565000000    -4.505000000
H    -5.918000000    -0.327000000    -3.747000000
H    -4.537000000    -0.150000000    -4.343000000
O    -2.897000000     0.959000000    -4.145000000
H    -2.058000000     0.536000000    -3.966000000
H    -2.766000000     1.408000000    -4.980000000
O    -1.460000000     4.836000000    -3.896000000
H    -0.740000000     5.369000000    -3.560000000
H    -1.431000000     4.036000000    -3.370000000
O    -3.686000000    -1.776000000    -1.627000000
H    -4.347000000    -2.421000000    -1.880000000
H    -3.516000000    -1.281000000    -2.429000000
O     5.837000000    -3.035000000    -1.238000000
H     6.761000000    -2.800000000    -1.164000000
H     5.840000000    -3.880000000    -1.689000000
O     1.146000000    -6.806000000     2.962000000
H     1.178000000    -6.215000000     2.209000000
H     1.031000000    -7.675000000     2.579000000
O    -4.639000000     1.964000000    -0.865000000
H    -4.061000000     1.269000000    -0.551000000
H    -5.216000000     2.150000000    -0.124000000
O    -5.447000000     3.034000000    -3.284000000
H    -6.266000000     2.742000000    -2.885000000
H    -4.766000000     2.552000000    -2.814000000
O    -4.142000000     5.503000000    -3.488000000
H    -4.533000000     4.646000000    -3.658000000
H    -3.199000000     5.337000000    -3.473000000
O    -1.906000000     1.392000000     2.959000000
H    -2.694000000     0.897000000     3.185000000
H    -1.471000000     0.858000000     2.295000000
O     3.323000000    -1.864000000     4.411000000
H     4.018000000    -1.226000000     4.574000000
H     3.156000000    -1.801000000     3.471000000
O    -5.765000000    -3.256000000    -2.732000000
H    -5.743000000    -4.211000000    -2.668000000
H    -6.638000000    -3.015000000    -2.420000000
O    -3.436000000    -5.601000000    -1.459000000
H    -4.326000000    -5.253000000    -1.400000000
H    -2.873000000    -4.830000000    -1.398000000
O    -0.430000000    -1.786000000    -2.509000000
H    -0.807000000    -1.251000000    -1.810000000
H    -0.408000000    -2.672000000    -2.146000000
O     3.875000000    -5.636000000     0.178000000
H     3.596000000    -5.031000000     0.865000000
H     3.338000000    -6.416000000     0.312000000
