158
-3028.82504
C    -0.884000000    -1.044000000     0.473000000
H    -1.583000000    -1.840000000     0.717000000
C    -1.148000000    -0.130000000    -0.495000000
H    -2.119000000    -0.188000000    -0.981000000
C    -0.188000000     0.811000000    -0.909000000
H    -0.407000000     1.628000000    -1.637000000
C     1.041000000     0.740000000    -0.326000000
H     1.703000000     1.563000000    -0.583000000
C     1.298000000    -0.104000000     0.700000000
H     2.295000000    -0.073000000     1.132000000
C     0.337000000    -1.047000000     1.076000000
C     0.587000000    -2.066000000     2.215000000
O    -0.256000000    -2.883000000     2.477000000
O     1.496000000    -1.953000000     3.012000000
O    -5.053000000     0.627000000    -0.721000000
H    -4.691000000     0.193000000    -1.494000000
H    -5.980000000     0.749000000    -0.926000000
O    -0.243000000     5.830000000    -0.866000000
H     0.333000000     6.151000000    -1.561000000
H    -0.791000000     6.582000000    -0.643000000
O     3.984000000    -4.751000000     2.552000000
H     3.856000000    -4.412000000     3.438000000
H     4.181000000    -5.679000000     2.677000000
O    -3.936000000    -0.352000000    -3.182000000
H    -3.100000000     0.031000000    -3.448000000
H    -3.742000000    -1.280000000    -3.046000000
O    -4.350000000    -1.972000000     0.407000000
H    -3.751000000    -2.697000000     0.585000000
H    -5.072000000    -2.372000000    -0.079000000
O     1.489000000     0.961000000    -7.769000000
H     1.113000000     1.606000000    -7.170000000
H     2.426000000     1.156000000    -7.773000000
O     0.428000000     4.459000000     1.187000000
H     0.126000000     4.844000000     0.364000000
H    -0.166000000     3.724000000     1.339000000
O     1.778000000     1.097000000    -3.877000000
H     2.364000000     1.060000000    -3.121000000
H     1.500000000     0.190000000    -4.008000000
O     2.938000000     4.118000000     1.781000000
H     2.037000000     4.302000000     1.514000000
H     2.851000000     3.503000000     2.509000000
O    -1.052000000     1.970000000     1.741000000
H    -1.716000000     2.421000000     1.221000000
H    -0.725000000     1.279000000     1.165000000
O    -3.760000000    -6.022000000     0.011000000
H    -3.367000000    -5.431000000     0.653000000
H    -3.410000000    -6.885000000     0.233000000
O    -1.721000000    -3.819000000     4.962000000
H    -2.599000000    -4.108000000     4.712000000
H    -1.552000000    -3.058000000     4.407000000
O     2.440000000     2.162000000     4.113000000
H     2.039000000     1.293000000     4.115000000
H     3.255000000     2.052000000     4.601000000
O     1.282000000     3.406000000    -2.614000000
H     1.143000000     2.567000000    -3.053000000
H     0.401000000     3.711000000    -2.395000000
O     4.091000000     0.865000000    -2.299000000
H     4.822000000     0.872000000    -1.681000000
H     4.468000000     1.183000000    -3.119000000
O    -0.698000000    -4.311000000    -1.427000000
H     0.089000000    -3.789000000    -1.581000000
H    -0.583000000    -4.662000000    -0.543000000
O    -0.819000000     0.167000000     4.461000000
H    -0.654000000     0.834000000     5.127000000
H    -0.138000000    -0.490000000     4.606000000
O     0.409000000    -5.260000000     1.083000000
H     1.340000000    -5.047000000     1.022000000
H     0.138000000    -4.909000000     1.932000000
O    -1.104000000    -2.792000000    -4.138000000
H    -1.849000000    -2.996000000    -3.573000000
H    -0.853000000    -3.634000000    -4.518000000
O     0.229000000     3.011000000    -6.381000000
H    -0.560000000     3.552000000    -6.388000000
H     0.568000000     3.092000000    -5.490000000
O    -4.634000000     0.433000000     2.238000000
H    -4.026000000    -0.252000000     2.518000000
H    -4.848000000     0.206000000     1.333000000
O     0.536000000    -7.324000000     4.006000000
H    -0.387000000    -7.363000000     3.754000000
H     0.737000000    -6.389000000     4.034000000
O     4.420000000    -1.668000000     0.679000000
H     4.057000000    -1.588000000    -0.204000000
H     4.895000000    -0.849000000     0.818000000
O    -3.740000000     4.271000000    -1.861000000
H    -4.676000000     4.238000000    -1.663000000
H    -3.627000000     5.088000000    -2.346000000
O     4.694000000    -3.613000000     5.983000000
H     4.583000000    -3.070000000     5.203000000
H     3.849000000    -3.567000000     6.430000000
O    -3.772000000    -4.930000000     3.726000000
H    -4.694000000    -5.184000000     3.688000000
H    -3.295000000    -5.759000000     3.753000000
O     5.676000000     0.748000000     0.728000000
H     6.427000000     0.642000000     0.145000000
H     5.989000000     1.332000000     1.419000000
O     4.066000000    -2.173000000     3.769000000
H     4.507000000    -1.571000000     3.169000000
H     3.168000000    -2.223000000     3.442000000
O     0.153000000    -1.537000000     6.682000000
H     0.226000000    -0.805000000     7.294000000
H    -0.788000000    -1.640000000     6.542000000
O    -2.615000000    -1.334000000     3.307000000
H    -1.878000000    -0.838000000     3.663000000
H    -2.257000000    -1.778000000     2.539000000
O     3.164000000    -1.717000000    -1.690000000
H     3.487000000    -0.826000000    -1.560000000
H     2.271000000    -1.603000000    -2.016000000
O    -1.381000000     3.975000000    -3.876000000
H    -1.761000000     4.183000000    -4.729000000
H    -2.038000000     4.268000000    -3.243000000
O    -2.561000000    -3.776000000     1.495000000
H    -1.744000000    -3.588000000     1.958000000
H    -3.133000000    -4.154000000     2.163000000
O     2.017000000    -0.436000000     4.994000000
H     1.715000000    -0.938000000     4.238000000
H     1.791000000    -0.979000000     5.749000000
O    -1.614000000    -0.219000000    -6.493000000
H    -1.212000000    -0.546000000    -7.298000000
H    -2.038000000    -0.986000000    -6.108000000
O    -1.548000000    -4.980000000     7.300000000
H    -1.414000000    -4.571000000     6.445000000
H    -2.482000000    -4.869000000     7.475000000
O    -3.367000000     5.583000000     1.614000000
H    -2.683000000     6.214000000     1.388000000
H    -3.426000000     5.009000000     0.850000000
O     1.036000000    -4.569000000     4.038000000
H     0.846000000    -4.300000000     4.937000000
H     1.062000000    -3.751000000     3.543000000
O     2.296000000    -3.289000000     7.407000000
H     2.575000000    -2.990000000     8.272000000
H     1.719000000    -2.595000000     7.088000000
O     2.877000000    -4.405000000     0.144000000
H     2.873000000    -3.504000000    -0.179000000
H     3.246000000    -4.341000000     1.025000000
O    -2.898000000     2.123000000     3.841000000
H    -3.633000000     1.623000000     3.488000000
H    -2.165000000     1.915000000     3.261000000
O     0.558000000    -1.408000000    -2.623000000
H     0.170000000    -0.744000000    -2.054000000
H    -0.169000000    -1.712000000    -3.167000000
O     3.146000000     4.205000000    -4.506000000
H     2.437000000     3.878000000    -3.952000000
H     3.515000000     3.419000000    -4.910000000
O    -3.230000000     2.653000000     0.319000000
H    -3.333000000     3.174000000    -0.478000000
H    -3.530000000     1.778000000     0.074000000
O     3.850000000     4.511000000    -0.959000000
H     3.214000000     3.915000000    -1.355000000
H     3.613000000     4.534000000    -0.032000000
O     4.503000000     0.619000000     5.500000000
H     4.069000000     0.621000000     6.353000000
H     3.893000000     0.160000000     4.922000000
O    -3.286000000    -3.614000000    -2.445000000
H    -2.593000000    -3.769000000    -1.804000000
H    -4.011000000    -4.166000000    -2.153000000
O    -1.767000000     0.801000000    -4.008000000
H    -1.455000000     1.703000000    -4.076000000
H    -1.572000000     0.415000000    -4.862000000
