158
-3036.16830
C    -1.200000000    -0.189000000     0.801000000
H    -2.075000000    -0.368000000     1.421000000
C    -1.199000000     0.077000000    -0.542000000
H    -2.138000000     0.057000000    -1.089000000
C     0.012000000     0.278000000    -1.174000000
H     0.076000000     0.585000000    -2.263000000
C     1.186000000     0.165000000    -0.502000000
H     2.111000000     0.303000000    -1.055000000
C     1.228000000    -0.036000000     0.863000000
H     2.189000000    -0.131000000     1.362000000
C    -0.006000000    -0.141000000     1.540000000
C     0.002000000    -0.332000000     3.021000000
O    -1.071000000    -0.618000000     3.557000000
O     1.019000000    -0.556000000     3.631000000
O     0.171000000     0.131000000    -5.379000000
H     0.880000000    -0.511000000    -5.428000000
H     0.543000000     0.860000000    -4.883000000
O     2.008000000     5.873000000    -1.703000000
H     1.057000000     5.850000000    -1.811000000
H     2.245000000     4.975000000    -1.475000000
O    -2.690000000     4.663000000     0.991000000
H    -2.243000000     4.169000000     1.678000000
H    -2.014000000     4.820000000     0.331000000
O    -1.690000000    -3.945000000    -1.292000000
H    -0.862000000    -3.555000000    -1.012000000
H    -1.655000000    -3.922000000    -2.248000000
O    -4.528000000    -3.764000000     5.945000000
H    -4.991000000    -4.324000000     5.321000000
H    -3.625000000    -3.751000000     5.629000000
O    -2.004000000     2.710000000     3.976000000
H    -2.011000000     1.765000000     3.821000000
H    -1.077000000     2.949000000     3.959000000
O     3.693000000    -3.520000000    -0.710000000
H     3.936000000    -3.032000000     0.077000000
H     4.385000000    -4.175000000    -0.809000000
O     2.605000000    -4.831000000     1.469000000
H     2.765000000    -4.804000000     0.525000000
H     1.850000000    -4.258000000     1.600000000
O     4.829000000     1.173000000     1.717000000
H     4.240000000     0.619000000     2.231000000
H     5.695000000     1.015000000     2.093000000
O    -4.186000000     0.082000000    -3.421000000
H    -3.953000000     1.002000000    -3.547000000
H    -3.384000000    -0.399000000    -3.626000000
O     1.118000000    -2.820000000     5.049000000
H     1.708000000    -2.414000000     5.685000000
H     0.847000000    -2.100000000     4.480000000
O    -0.420000000     3.421000000     6.409000000
H    -0.971000000     3.072000000     5.708000000
H     0.117000000     4.088000000     5.981000000
O    -2.288000000    -4.564000000     2.337000000
H    -2.715000000    -4.106000000     1.613000000
H    -2.363000000    -5.491000000     2.113000000
O    -0.202000000     4.312000000    -0.863000000
H    -0.928000000     3.769000000    -1.173000000
H     0.498000000     3.688000000    -0.670000000
O    -5.174000000    -1.263000000     2.509000000
H    -6.028000000    -1.140000000     2.095000000
H    -4.700000000    -1.843000000     1.912000000
O    -5.675000000     0.838000000    -5.557000000
H    -5.225000000     0.661000000    -4.731000000
H    -6.505000000     1.236000000    -5.297000000
O     7.378000000     0.019000000    -1.376000000
H     7.881000000    -0.646000000    -1.846000000
H     6.756000000    -0.480000000    -0.846000000
O    -4.381000000    -1.696000000    -5.926000000
H    -4.909000000    -0.909000000    -6.063000000
H    -3.938000000    -1.545000000    -5.091000000
O     3.276000000    -2.647000000    -3.293000000
H     3.372000000    -2.790000000    -2.351000000
H     3.193000000    -3.527000000    -3.661000000
O     3.576000000     4.271000000    -4.338000000
H     4.286000000     3.852000000    -4.825000000
H     3.374000000     5.060000000    -4.841000000
O     0.602000000     2.872000000     3.123000000
H     1.245000000     3.168000000     3.767000000
H     1.126000000     2.575000000     2.379000000
O     3.685000000    -0.537000000     3.401000000
H     2.728000000    -0.576000000     3.407000000
H     3.924000000    -0.386000000     4.315000000
O     6.074000000     2.382000000    -1.698000000
H     6.445000000     1.541000000    -1.964000000
H     6.437000000     3.012000000    -2.321000000
O    -3.736000000    -3.045000000     0.574000000
H    -4.514000000    -2.776000000     0.086000000
H    -3.089000000    -3.252000000    -0.101000000
O    -0.101000000    -0.232000000     6.262000000
H    -0.322000000    -0.242000000     5.331000000
H    -0.891000000     0.097000000     6.692000000
O    -0.303000000    -3.601000000     7.379000000
H     0.521000000    -3.348000000     7.796000000
H    -0.482000000    -2.897000000     6.755000000
O     3.951000000     1.035000000    -5.415000000
H     4.723000000     1.595000000    -5.337000000
H     3.382000000     1.496000000    -6.032000000
O    -2.452000000    -4.037000000    -5.721000000
H    -3.180000000    -4.412000000    -5.226000000
H    -2.261000000    -3.210000000    -5.279000000
O    -3.669000000    -0.282000000     4.422000000
H    -4.334000000    -0.518000000     3.775000000
H    -2.900000000    -0.795000000     4.173000000
O     4.965000000    -0.938000000    -0.737000000
H     4.629000000    -0.094000000    -0.435000000
H     4.989000000    -1.481000000     0.051000000
O    -5.494000000     2.190000000    -0.957000000
H    -5.714000000     1.396000000    -0.469000000
H    -6.128000000     2.840000000    -0.654000000
O    -2.080000000    -3.231000000     4.700000000
H    -2.161000000    -3.687000000     3.862000000
H    -1.697000000    -2.383000000     4.475000000
O     2.820000000     2.483000000     5.510000000
H     3.494000000     2.149000000     6.103000000
H     2.004000000     2.104000000     5.837000000
O     2.656000000     2.868000000     1.053000000
H     3.433000000     2.611000000     1.550000000
H     2.963000000     2.936000000     0.148000000
O     4.295000000    -0.496000000     5.899000000
H     4.545000000    -1.376000000     6.181000000
H     3.849000000    -0.120000000     6.658000000
O     0.726000000    -5.482000000     5.357000000
H     0.982000000    -4.787000000     4.749000000
H     0.271000000    -5.025000000     6.064000000
O    -6.590000000    -0.381000000    -1.307000000
H    -5.964000000    -0.082000000    -1.967000000
H    -7.335000000     0.213000000    -1.396000000
O     4.519000000    -2.498000000     1.697000000
H     4.173000000    -1.834000000     2.293000000
H     5.469000000    -2.401000000     1.757000000
O     0.279000000    -3.371000000     2.017000000
H    -0.360000000    -4.081000000     2.085000000
H     0.264000000    -2.952000000     2.878000000
O     2.228000000    -0.783000000     7.596000000
H     2.468000000     0.099000000     7.879000000
H     1.349000000    -0.686000000     7.230000000
O     0.997000000    -3.231000000    -0.800000000
H     0.753000000    -2.715000000    -0.032000000
H     1.948000000    -3.323000000    -0.733000000
O     2.464000000    -1.310000000    -5.660000000
H     3.039000000    -1.827000000    -5.096000000
H     2.925000000    -0.479000000    -5.774000000
O    -3.776000000     2.810000000    -3.138000000
H    -4.199000000     2.568000000    -2.314000000
H    -3.831000000     3.766000000    -3.163000000
O     0.162000000    -3.557000000    -3.339000000
H     0.484000000    -3.223000000    -2.503000000
H     0.902000000    -3.461000000    -3.938000000
O     3.475000000     2.802000000    -1.688000000
H     3.254000000     2.730000000    -2.617000000
H     4.379000000     2.493000000    -1.633000000
O     5.317000000    -0.729000000    -4.061000000
H     4.614000000    -1.184000000    -3.598000000
H     4.921000000     0.094000000    -4.349000000
O    -0.732000000     1.664000000    -7.561000000
H    -1.613000000     1.382000000    -7.810000000
H    -0.512000000     1.121000000    -6.805000000
O    -1.930000000    -1.432000000    -4.255000000
H    -1.443000000    -2.054000000    -3.716000000
H    -1.257000000    -0.975000000    -4.761000000
