158
-3050.09033
C    -1.207000000    -0.915000000     0.145000000
H    -2.098000000    -1.538000000     0.122000000
C    -1.020000000     0.044000000    -0.855000000
H    -1.839000000     0.088000000    -1.569000000
C     0.033000000     0.914000000    -0.823000000
H     0.062000000     1.725000000    -1.581000000
C     1.007000000     0.784000000     0.165000000
H     1.810000000     1.509000000     0.272000000
C     0.942000000    -0.228000000     1.100000000
H     1.760000000    -0.328000000     1.808000000
C    -0.171000000    -1.116000000     1.121000000
C    -0.204000000    -2.243000000     2.076000000
O    -1.060000000    -3.104000000     2.177000000
O     0.762000000    -2.469000000     2.757000000
O    -4.462000000    -0.131000000    -0.809000000
H    -4.206000000    -0.771000000    -1.473000000
H    -5.194000000    -0.542000000    -0.350000000
O    -0.727000000     3.179000000    -3.324000000
H    -0.118000000     3.811000000    -3.705000000
H    -1.580000000     3.419000000    -3.685000000
O    -5.090000000    -0.285000000     2.543000000
H    -4.602000000    -1.058000000     2.262000000
H    -4.505000000     0.160000000     3.155000000
O     4.771000000    -3.290000000     0.076000000
H     4.548000000    -2.421000000    -0.257000000
H     4.626000000    -3.876000000    -0.667000000
O    -4.326000000    -0.887000000    -4.786000000
H    -3.616000000    -1.129000000    -4.192000000
H    -5.105000000    -0.859000000    -4.230000000
O    -5.371000000    -3.845000000    -0.040000000
H    -5.143000000    -4.067000000    -0.943000000
H    -6.080000000    -3.208000000    -0.121000000
O    -0.604000000     4.620000000    -0.684000000
H    -0.859000000     3.805000000    -1.116000000
H    -1.298000000     4.780000000    -0.044000000
O     3.232000000     3.580000000     1.495000000
H     3.544000000     4.350000000     1.972000000
H     2.854000000     3.017000000     2.171000000
O    -1.554000000     1.694000000     1.589000000
H    -2.085000000     2.001000000     0.855000000
H    -1.096000000     0.925000000     1.249000000
O    -4.351000000    -4.688000000    -2.413000000
H    -4.370000000    -5.254000000    -3.185000000
H    -3.644000000    -5.042000000    -1.874000000
O     0.032000000    -3.004000000     5.276000000
H    -0.612000000    -2.332000000     5.501000000
H     0.137000000    -2.927000000     4.327000000
O     2.565000000     1.949000000     3.728000000
H     2.837000000     1.089000000     4.050000000
H     1.979000000     2.284000000     4.407000000
O     0.963000000     1.110000000    -4.296000000
H     0.317000000     0.407000000    -4.371000000
H     0.541000000     1.764000000    -3.738000000
O     3.161000000     0.112000000    -2.779000000
H     3.913000000     0.704000000    -2.816000000
H     2.468000000     0.577000000    -3.247000000
O     4.738000000     5.221000000    -0.491000000
H     4.821000000     5.766000000     0.291000000
H     4.383000000     4.392000000    -0.170000000
O    -0.505000000    -2.672000000    -2.004000000
H    -0.287000000    -1.878000000    -1.517000000
H    -0.352000000    -3.384000000    -1.383000000
O    -5.428000000    -3.566000000     3.878000000
H    -6.195000000    -3.735000000     3.330000000
H    -4.692000000    -3.570000000     3.266000000
O    -1.465000000     3.174000000     3.830000000
H    -1.494000000     2.799000000     2.950000000
H    -0.532000000     3.240000000     4.032000000
O    -0.240000000    -4.677000000    -0.388000000
H     0.344000000    -4.857000000     0.348000000
H    -1.119000000    -4.813000000    -0.036000000
O     0.997000000     4.738000000    -4.797000000
H     1.072000000     5.258000000    -5.598000000
H     1.694000000     5.069000000    -4.231000000
O     3.206000000    -5.860000000     1.006000000
H     2.473000000    -5.731000000     1.609000000
H     3.441000000    -4.977000000     0.722000000
O    -3.752000000     1.496000000    -5.824000000
H    -3.811000000     0.630000000    -5.421000000
H    -4.623000000     1.876000000    -5.704000000
O    -3.688000000    -2.583000000     2.031000000
H    -2.750000000    -2.747000000     2.126000000
H    -3.887000000    -2.844000000     1.132000000
O     3.044000000     5.655000000    -3.284000000
H     2.597000000     5.282000000    -2.524000000
H     3.929000000     5.843000000    -2.972000000
O     0.572000000    -7.970000000     1.612000000
H     0.350000000    -7.060000000     1.806000000
H    -0.265000000    -8.433000000     1.644000000
O     3.832000000    -0.740000000    -0.329000000
H     3.499000000    -0.555000000    -1.207000000
H     4.364000000     0.025000000    -0.109000000
O    -3.298000000     3.930000000    -4.054000000
H    -3.630000000     3.771000000    -4.938000000
H    -3.242000000     4.884000000    -3.988000000
O     5.001000000    -4.281000000     3.018000000
H     4.442000000    -3.620000000     2.609000000
H     5.544000000    -4.611000000     2.303000000
O    -2.198000000    -6.601000000     4.074000000
H    -2.997000000    -6.205000000     4.420000000
H    -2.419000000    -7.525000000     3.959000000
O     4.889000000     1.442000000     0.824000000
H     5.489000000     2.042000000     1.267000000
H     4.042000000     1.887000000     0.852000000
O     3.424000000    -1.951000000     2.415000000
H     3.664000000    -1.661000000     1.535000000
H     2.480000000    -2.102000000     2.367000000
O     0.312000000    -5.638000000     5.317000000
H    -0.349000000    -6.147000000     4.848000000
H    -0.057000000    -4.756000000     5.367000000
O     2.326000000    -2.478000000    -2.744000000
H     2.374000000    -1.522000000    -2.731000000
H     1.437000000    -2.678000000    -2.449000000
O    -0.680000000     2.564000000    -6.533000000
H     0.273000000     2.580000000    -6.621000000
H    -0.837000000     2.119000000    -5.701000000
O    -2.225000000    -5.441000000     1.625000000
H    -1.784000000    -4.653000000     1.942000000
H    -2.365000000    -5.970000000     2.410000000
O     2.040000000    -0.614000000     4.976000000
H     1.439000000    -1.097000000     4.407000000
H     1.562000000    -0.515000000     5.800000000
O     2.560000000    -3.387000000     6.722000000
H     1.750000000    -3.247000000     6.231000000
H     2.615000000    -4.336000000     6.827000000
O    -3.379000000     4.682000000     0.330000000
H    -3.548000000     5.291000000    -0.390000000
H    -3.377000000     3.819000000    -0.083000000
O     1.166000000    -5.015000000     2.461000000
H     1.548000000    -5.311000000     3.287000000
H     1.093000000    -4.065000000     2.558000000
O    -0.322000000    -1.083000000    -4.918000000
H    -0.499000000    -1.279000000    -5.838000000
H    -0.096000000    -1.930000000    -4.532000000
O     2.774000000     1.320000000    -6.183000000
H     2.161000000     1.081000000    -5.488000000
H     3.186000000     2.126000000    -5.872000000
O    -0.565000000     7.440000000    -1.943000000
H    -0.484000000     7.475000000    -2.896000000
H    -0.211000000     6.584000000    -1.703000000
O    -3.190000000     2.503000000    -1.020000000
H    -2.738000000     2.525000000    -1.863000000
H    -3.604000000     1.641000000    -0.993000000
O     6.068000000    -0.382000000     2.752000000
H     5.700000000     0.396000000     2.334000000
H     5.417000000    -1.067000000     2.600000000
O     1.957000000     4.090000000    -1.220000000
H     1.031000000     4.311000000    -1.112000000
H     2.283000000     3.982000000    -0.327000000
O     4.283000000    -1.391000000     6.224000000
H     3.569000000    -1.293000000     5.593000000
H     3.981000000    -2.075000000     6.822000000
O    -3.200000000    -2.101000000    -2.552000000
H    -2.258000000    -2.268000000    -2.510000000
H    -3.594000000    -2.970000000    -2.626000000
O     4.208000000     2.639000000    -2.738000000
H     3.457000000     3.108000000    -2.374000000
H     4.378000000     3.073000000    -3.574000000
