158
-3043.38646
C    -0.884000000     0.020000000     1.166000000
H    -1.668000000    -0.075000000     1.914000000
C    -1.312000000    -0.024000000    -0.144000000
H    -2.367000000    -0.141000000    -0.380000000
C    -0.358000000    -0.028000000    -1.195000000
H    -0.687000000    -0.107000000    -2.249000000
C     0.993000000    -0.057000000    -0.827000000
H     1.674000000    -0.102000000    -1.673000000
C     1.409000000    -0.023000000     0.498000000
H     2.449000000    -0.026000000     0.813000000
C     0.446000000     0.092000000     1.496000000
C     0.898000000     0.255000000     2.974000000
O     0.041000000     0.181000000     3.830000000
O     2.037000000     0.317000000     3.226000000
O     5.237000000     3.944000000     3.046000000
H     5.156000000     4.668000000     3.667000000
H     5.344000000     3.168000000     3.595000000
O     4.151000000     2.742000000    -0.406000000
H     4.135000000     2.097000000    -1.112000000
H     4.889000000     3.312000000    -0.619000000
O     0.563000000     4.969000000    -3.755000000
H     0.500000000     5.100000000    -2.809000000
H     1.503000000     4.988000000    -3.937000000
O     1.102000000    -0.618000000    -5.753000000
H     1.097000000    -0.375000000    -6.679000000
H     1.750000000    -0.035000000    -5.356000000
O    -2.454000000     3.428000000    -0.128000000
H    -3.379000000     3.507000000    -0.361000000
H    -2.088000000     2.846000000    -0.793000000
O    -0.044000000    -2.985000000     0.854000000
H    -0.372000000    -3.278000000     0.004000000
H     0.347000000    -2.130000000     0.678000000
O     2.450000000     2.202000000     5.170000000
H     2.239000000     1.534000000     4.518000000
H     3.402000000     2.293000000     5.121000000
O     3.251000000     2.746000000    -3.129000000
H     2.381000000     3.120000000    -2.992000000
H     3.733000000     3.426000000    -3.599000000
O     4.934000000    -1.313000000    -0.120000000
H     5.114000000    -1.899000000     0.615000000
H     5.005000000    -0.434000000     0.252000000
O    -5.012000000     1.106000000    -2.404000000
H    -5.111000000     2.035000000    -2.195000000
H    -4.420000000     1.091000000    -3.156000000
O     2.917000000    -0.614000000     6.846000000
H     2.881000000     0.036000000     6.145000000
H     2.001000000    -0.817000000     7.033000000
O     1.173000000    -3.321000000    -4.282000000
H     2.039000000    -3.595000000    -3.981000000
H     1.334000000    -2.514000000    -4.772000000
O     0.873000000     1.912000000     7.811000000
H     1.698000000     2.033000000     7.340000000
H     0.695000000     2.767000000     8.204000000
O     0.623000000    -3.418000000     6.080000000
H     0.472000000    -2.538000000     5.736000000
H     0.928000000    -3.921000000     5.325000000
O    -3.603000000     1.478000000    -4.660000000
H    -2.694000000     1.735000000    -4.500000000
H    -3.538000000     0.627000000    -5.093000000
O    -2.124000000    -1.221000000     4.549000000
H    -2.610000000    -0.816000000     3.831000000
H    -1.233000000    -0.882000000     4.457000000
O    -1.405000000    -3.415000000    -5.531000000
H    -0.608000000    -3.797000000    -5.162000000
H    -2.117000000    -3.839000000    -5.052000000
O     7.817000000    -0.003000000     1.521000000
H     6.985000000     0.470000000     1.522000000
H     8.403000000     0.542000000     2.045000000
O    -5.501000000    -0.748000000    -0.311000000
H    -6.110000000    -0.240000000     0.225000000
H    -5.513000000    -0.313000000    -1.164000000
O    -0.835000000     1.945000000    -6.733000000
H    -0.062000000     1.608000000    -7.186000000
H    -1.515000000     1.294000000    -6.905000000
O     1.511000000     4.474000000     6.254000000
H     1.726000000     4.979000000     5.470000000
H     1.770000000     3.578000000     6.040000000
O     5.113000000     1.593000000     4.843000000
H     5.304000000     0.691000000     4.589000000
H     5.674000000     1.753000000     5.601000000
O    -1.744000000    -4.209000000     3.949000000
H    -2.097000000    -3.361000000     3.679000000
H    -2.325000000    -4.498000000     4.653000000
O     5.657000000    -1.097000000     4.377000000
H     4.867000000    -1.549000000     4.082000000
H     5.768000000    -1.379000000     5.285000000
O     3.398000000     0.537000000    -4.763000000
H     3.644000000     0.045000000    -3.980000000
H     3.475000000     1.455000000    -4.502000000
O    -3.470000000     3.036000000     2.685000000
H    -3.305000000     3.127000000     1.746000000
H    -2.624000000     2.783000000     3.054000000
O     0.962000000    -3.959000000     3.269000000
H     0.098000000    -4.151000000     3.632000000
H     0.787000000    -3.659000000     2.377000000
O     4.914000000     0.885000000     1.313000000
H     4.519000000     1.687000000     0.972000000
H     4.649000000     0.860000000     2.233000000
O     0.337000000    -0.469000000     6.204000000
H     0.006000000     0.323000000     6.627000000
H     0.425000000    -0.229000000     5.281000000
O    -3.438000000    -4.845000000    -4.592000000
H    -4.136000000    -4.408000000    -4.103000000
H    -3.135000000    -5.539000000    -4.007000000
O    -0.814000000     2.937000000     3.600000000
H    -0.580000000     2.009000000     3.577000000
H    -0.318000000     3.290000000     4.338000000
O     4.092000000    -0.930000000    -2.614000000
H     4.504000000    -1.028000000    -1.755000000
H     3.398000000    -1.590000000    -2.623000000
O     6.520000000    -1.546000000    -3.782000000
H     5.656000000    -1.489000000    -3.374000000
H     6.369000000    -1.309000000    -4.697000000
O    -6.163000000     2.161000000     3.407000000
H    -5.231000000     2.198000000     3.191000000
H    -6.552000000     1.648000000     2.699000000
O     5.316000000    -3.286000000     1.948000000
H     4.560000000    -2.978000000     2.448000000
H     5.888000000    -3.688000000     2.602000000
O     0.626000000     2.963000000    -1.526000000
H     0.173000000     3.196000000    -0.716000000
H     1.534000000     2.816000000    -1.259000000
O    -3.089000000    -2.276000000    -2.577000000
H    -3.454000000    -2.595000000    -1.752000000
H    -3.367000000    -1.361000000    -2.624000000
O    -0.468000000    -6.363000000    -1.831000000
H    -1.257000000    -6.564000000    -2.335000000
H    -0.456000000    -5.408000000    -1.775000000
O    -3.398000000     0.300000000     6.427000000
H    -2.763000000    -0.097000000     5.831000000
H    -3.012000000     1.145000000     6.659000000
O     3.178000000    -1.982000000     3.290000000
H     2.433000000    -2.539000000     3.516000000
H     2.808000000    -1.101000000     3.228000000
O    -1.185000000     4.644000000    -6.379000000
H    -1.051000000     3.771000000    -6.750000000
H    -0.734000000     4.616000000    -5.535000000
O    -4.827000000     2.924000000    -6.525000000
H    -4.459000000     2.475000000    -7.286000000
H    -4.380000000     2.530000000    -5.776000000
O    -2.332000000    -4.820000000     0.601000000
H    -3.236000000    -4.507000000     0.642000000
H    -1.881000000    -4.339000000     1.295000000
O    -0.541000000    -3.447000000    -1.904000000
H     0.054000000    -3.306000000    -2.641000000
H    -1.353000000    -3.012000000    -2.164000000
O    -4.613000000    -3.247000000    -0.330000000
H    -5.345000000    -3.667000000     0.122000000
H    -4.860000000    -2.324000000    -0.380000000
O    -1.038000000     2.058000000    -3.854000000
H    -0.394000000     2.291000000    -3.186000000
H    -0.519000000     1.905000000    -4.644000000
O    -4.112000000    -0.834000000     2.788000000
H    -4.668000000    -1.259000000     3.442000000
H    -4.724000000    -0.513000000     2.126000000
O    -1.738000000    -0.809000000    -6.199000000
H    -1.824000000    -1.670000000    -5.789000000
H    -0.805000000    -0.607000000    -6.140000000
