158
-3015.28859
C    -0.428000000     0.636000000     1.283000000
H    -0.763000000     1.137000000     2.187000000
C    -0.954000000     0.952000000     0.035000000
H    -1.810000000     1.616000000    -0.060000000
C    -0.455000000     0.280000000    -1.092000000
H    -0.949000000     0.396000000    -2.077000000
C     0.585000000    -0.657000000    -1.050000000
H     0.899000000    -1.239000000    -1.912000000
C     1.140000000    -0.952000000     0.246000000
H     1.856000000    -1.765000000     0.337000000
C     0.650000000    -0.210000000     1.445000000
C     1.188000000    -0.640000000     2.808000000
O     0.478000000    -0.363000000     3.779000000
O     2.199000000    -1.287000000     2.872000000
O    -2.431000000    -5.194000000    -1.086000000
H    -2.214000000    -4.300000000    -0.821000000
H    -3.386000000    -5.237000000    -1.023000000
O     0.167000000    -0.139000000    -5.150000000
H     0.232000000    -0.812000000    -5.828000000
H     1.046000000    -0.092000000    -4.774000000
O    -0.299000000     4.615000000    -3.322000000
H    -0.975000000     5.246000000    -3.074000000
H    -0.731000000     4.035000000    -3.949000000
O    -1.522000000     6.152000000     3.447000000
H    -1.022000000     6.515000000     4.179000000
H    -0.995000000     5.415000000     3.139000000
O    -1.630000000    -2.320000000    -1.127000000
H    -1.371000000    -2.492000000    -2.033000000
H    -0.908000000    -1.808000000    -0.764000000
O    -2.988000000    -2.863000000     6.379000000
H    -2.479000000    -3.443000000     5.813000000
H    -2.409000000    -2.117000000     6.540000000
O    -0.365000000     2.062000000     4.582000000
H     0.033000000     1.244000000     4.285000000
H    -0.170000000     2.690000000     3.887000000
O     3.437000000    -4.492000000    -1.319000000
H     3.904000000    -4.389000000    -0.490000000
H     3.488000000    -5.430000000    -1.507000000
O     3.851000000     2.292000000    -3.233000000
H     3.586000000     3.019000000    -2.670000000
H     4.738000000     2.517000000    -3.513000000
O     2.867000000    -6.478000000     1.949000000
H     3.740000000    -6.089000000     1.994000000
H     2.269000000    -5.733000000     2.018000000
O     1.944000000    -2.637000000     8.434000000
H     1.468000000    -2.591000000     7.605000000
H     2.867000000    -2.661000000     8.179000000
O     4.300000000    -0.705000000    -0.607000000
H     4.172000000    -0.910000000     0.319000000
H     4.306000000     0.252000000    -0.642000000
O    -5.437000000     3.238000000    -3.333000000
H    -4.954000000     2.643000000    -2.760000000
H    -4.833000000     3.417000000    -4.054000000
O     2.961000000    -2.033000000     5.477000000
H     2.107000000    -2.421000000     5.668000000
H     2.906000000    -1.777000000     4.556000000
O     0.667000000     1.969000000     7.488000000
H     0.633000000     1.989000000     6.531000000
H     0.616000000     2.889000000     7.748000000
O    -1.298000000    -4.608000000     4.777000000
H    -1.484000000    -4.577000000     3.838000000
H    -1.681000000    -5.435000000     5.069000000
O    -3.313000000     4.080000000    -4.982000000
H    -2.802000000     3.315000000    -4.716000000
H    -3.741000000     3.811000000    -5.794000000
O    -3.264000000    -0.516000000     2.725000000
H    -3.623000000    -0.938000000     1.945000000
H    -2.337000000    -0.387000000     2.522000000
O    -4.740000000     1.278000000    -5.655000000
H    -4.423000000     0.600000000    -5.060000000
H    -5.292000000     0.809000000    -6.281000000
O    -5.945000000     2.256000000    -0.152000000
H    -6.664000000     1.723000000     0.188000000
H    -6.317000000     2.706000000    -0.910000000
O    -4.857000000    -1.711000000     4.631000000
H    -4.391000000    -1.864000000     5.453000000
H    -4.194000000    -1.343000000     4.046000000
O     1.180000000     3.465000000    -6.412000000
H     0.702000000     3.213000000    -7.202000000
H     2.100000000     3.454000000    -6.675000000
O     0.038000000     4.081000000     2.765000000
H     0.781000000     4.524000000     3.175000000
H     0.379000000     3.767000000     1.928000000
O     4.813000000    -1.381000000     2.099000000
H     3.876000000    -1.475000000     2.269000000
H     5.049000000    -0.549000000     2.510000000
O     2.552000000     0.167000000    -4.263000000
H     3.028000000    -0.546000000    -3.836000000
H     2.986000000     0.962000000    -3.954000000
O    -4.116000000     4.439000000     4.318000000
H    -3.270000000     4.868000000     4.447000000
H    -3.895000000     3.570000000     3.981000000
O    -1.360000000    -3.954000000     1.845000000
H    -2.233000000    -3.678000000     2.125000000
H    -1.502000000    -4.797000000     1.415000000
O     3.843000000     2.027000000     0.765000000
H     3.623000000     2.807000000     1.273000000
H     3.435000000     2.174000000    -0.088000000
O     5.088000000    -5.109000000     1.682000000
H     5.779000000    -5.605000000     1.243000000
H     5.458000000    -4.233000000     1.796000000
O    -0.538000000    -0.683000000     6.087000000
H    -0.169000000     0.161000000     6.346000000
H    -0.264000000    -0.795000000     5.177000000
O    -4.751000000    -3.031000000    -5.649000000
H    -5.583000000    -2.904000000    -5.193000000
H    -4.235000000    -2.256000000    -5.425000000
O    -3.398000000     1.851000000     3.946000000
H    -3.623000000     1.016000000     3.537000000
H    -2.504000000     1.730000000     4.265000000
O     3.686000000    -2.252000000    -2.885000000
H     4.010000000    -1.603000000    -2.260000000
H     3.340000000    -2.958000000    -2.340000000
O     3.792000000    -5.054000000     5.701000000
H     4.742000000    -5.071000000     5.584000000
H     3.523000000    -4.205000000     5.351000000
O     0.353000000    -3.238000000     6.205000000
H    -0.086000000    -3.838000000     5.602000000
H    -0.115000000    -2.410000000     6.101000000
O     1.060000000     3.010000000    -0.237000000
H     0.592000000     3.238000000    -1.040000000
H     0.908000000     2.071000000    -0.129000000
O    -4.929000000    -2.530000000    -1.876000000
H    -5.581000000    -2.189000000    -2.489000000
H    -4.091000000    -2.397000000    -2.319000000
O     5.977000000    -3.011000000    -0.117000000
H     5.292000000    -2.362000000     0.041000000
H     6.792000000    -2.553000000     0.088000000
O     0.132000000    -6.159000000     0.098000000
H    -0.613000000    -5.942000000    -0.463000000
H     0.674000000    -5.370000000     0.093000000
O     6.272000000     1.416000000     2.105000000
H     6.781000000     1.778000000     1.380000000
H     5.371000000     1.687000000     1.925000000
O     1.420000000    -3.974000000     2.012000000
H     0.519000000    -3.792000000     1.743000000
H     1.781000000    -3.115000000     2.232000000
O     3.568000000     0.311000000     6.639000000
H     4.498000000     0.119000000     6.522000000
H     3.117000000    -0.391000000     6.170000000
O     1.145000000    -4.304000000    -2.567000000
H     1.307000000    -4.887000000    -3.309000000
H     1.961000000    -4.321000000    -2.066000000
O    -3.518000000     3.369000000    -0.847000000
H    -3.948000000     4.221000000    -0.779000000
H    -4.161000000     2.747000000    -0.506000000
O    -0.997000000    -3.069000000    -3.662000000
H    -0.249000000    -3.568000000    -3.333000000
H    -0.643000000    -2.557000000    -4.389000000
O    -0.872000000     2.258000000    -5.052000000
H    -0.107000000     2.722000000    -5.393000000
H    -0.605000000     1.339000000    -5.029000000
O    -3.977000000    -1.745000000     0.548000000
H    -4.701000000    -1.919000000    -0.054000000
H    -3.191000000    -1.843000000     0.010000000
O    -2.988000000    -0.959000000    -4.821000000
H    -2.333000000    -1.594000000    -4.532000000
H    -2.497000000    -0.332000000    -5.351000000
