158
-3037.57408
C    -0.935000000     0.464000000     1.026000000
H    -1.566000000     0.982000000     1.744000000
C    -1.041000000     0.810000000    -0.342000000
H    -1.801000000     1.464000000    -0.762000000
C    -0.132000000     0.228000000    -1.187000000
H    -0.151000000     0.543000000    -2.242000000
C     0.763000000    -0.737000000    -0.769000000
H     1.437000000    -1.189000000    -1.492000000
C     0.873000000    -1.069000000     0.599000000
H     1.688000000    -1.682000000     0.973000000
C     0.025000000    -0.447000000     1.508000000
C     0.360000000    -0.603000000     3.007000000
O    -0.091000000     0.184000000     3.844000000
O     0.999000000    -1.578000000     3.332000000
O     3.968000000     1.239000000     0.322000000
H     3.344000000     1.443000000    -0.374000000
H     4.790000000     1.066000000    -0.136000000
O    -3.670000000     4.112000000     0.903000000
H    -3.465000000     4.177000000    -0.029000000
H    -3.113000000     4.771000000     1.317000000
O     0.593000000     3.388000000    -3.599000000
H     0.280000000     4.217000000    -3.236000000
H     1.051000000     3.636000000    -4.402000000
O     6.755000000    -1.329000000    -1.779000000
H     7.184000000    -2.082000000    -2.185000000
H     5.950000000    -1.686000000    -1.405000000
O     1.221000000    -2.679000000    -5.057000000
H     1.343000000    -2.691000000    -6.006000000
H     1.438000000    -1.783000000    -4.799000000
O    -3.888000000     1.936000000     2.540000000
H    -3.843000000     2.799000000     2.127000000
H    -4.448000000     1.421000000     1.959000000
O    -0.275000000     3.604000000     2.444000000
H    -0.586000000     3.002000000     3.120000000
H     0.569000000     3.244000000     2.173000000
O    -1.179000000    -3.166000000    -0.472000000
H    -1.363000000    -3.149000000    -1.411000000
H    -0.736000000    -2.336000000    -0.299000000
O     1.636000000     0.119000000     6.198000000
H     1.063000000     0.063000000     5.433000000
H     2.423000000     0.560000000     5.876000000
O     2.809000000     2.018000000    -2.259000000
H     2.036000000     2.466000000    -2.603000000
H     3.522000000     2.643000000    -2.382000000
O     2.806000000    -5.966000000     4.473000000
H     3.318000000    -6.445000000     3.821000000
H     2.559000000    -5.153000000     4.032000000
O     4.446000000    -1.770000000     0.021000000
H     4.454000000    -2.574000000     0.541000000
H     4.456000000    -1.066000000     0.669000000
O    -6.350000000     0.243000000    -1.800000000
H    -6.137000000     1.174000000    -1.859000000
H    -5.726000000    -0.183000000    -2.388000000
O     2.803000000    -2.472000000     5.210000000
H     3.179000000    -1.639000000     5.493000000
H     2.188000000    -2.235000000     4.516000000
O    -0.669000000    -4.455000000    -4.259000000
H    -0.414000000    -5.372000000    -4.368000000
H     0.126000000    -3.960000000    -4.458000000
O    -1.114000000     1.206000000     7.398000000
H    -0.330000000     1.262000000     7.945000000
H    -1.737000000     1.803000000     7.811000000
O    -2.377000000    -3.637000000     5.057000000
H    -1.963000000    -2.813000000     5.315000000
H    -2.666000000    -4.028000000     5.882000000
O    -4.602000000    -0.840000000    -3.906000000
H    -4.113000000    -1.660000000    -3.839000000
H    -3.995000000    -0.234000000    -4.332000000
O    -3.082000000     4.633000000    -1.559000000
H    -3.316000000     4.956000000    -2.429000000
H    -2.328000000     5.165000000    -1.301000000
O    -3.224000000     4.876000000    -4.400000000
H    -2.957000000     3.962000000    -4.308000000
H    -2.960000000     5.114000000    -5.289000000
O     6.342000000    -1.653000000     3.331000000
H     5.401000000    -1.487000000     3.271000000
H     6.721000000    -0.805000000     3.560000000
O    -5.684000000     0.636000000     1.033000000
H    -6.545000000     0.703000000     1.447000000
H    -5.856000000     0.777000000     0.102000000
O    -3.455000000     1.117000000    -6.157000000
H    -3.134000000     1.693000000    -5.463000000
H    -3.844000000     1.710000000    -6.799000000
O     4.339000000    -0.817000000    -6.476000000
H     4.311000000    -0.461000000    -5.588000000
H     3.420000000    -0.951000000    -6.709000000
O     2.408000000     4.127000000    -5.960000000
H     3.047000000     4.537000000    -5.377000000
H     2.513000000     4.588000000    -6.793000000
O     2.866000000    -0.337000000    -3.800000000
H     3.160000000    -0.948000000    -3.125000000
H     2.755000000     0.495000000    -3.338000000
O    -3.714000000     3.189000000     4.929000000
H    -3.638000000     2.663000000     4.133000000
H    -4.432000000     3.795000000     4.749000000
O     0.441000000    -5.218000000     0.155000000
H    -0.035000000    -5.964000000     0.519000000
H    -0.221000000    -4.534000000     0.058000000
O     3.768000000    -0.870000000     2.769000000
H     3.832000000     0.075000000     2.631000000
H     2.841000000    -1.022000000     2.956000000
O    -1.071000000    -1.363000000     5.862000000
H    -0.725000000    -1.118000000     5.004000000
H    -0.819000000    -0.641000000     6.437000000
O    -0.388000000     2.526000000     5.102000000
H    -0.186000000     1.765000000     4.558000000
H    -0.601000000     2.157000000     5.960000000
O     3.533000000    -2.436000000    -2.370000000
H     3.793000000    -2.253000000    -1.468000000
H     3.122000000    -3.299000000    -2.332000000
O     2.292000000     2.639000000     2.295000000
H     2.809000000     2.988000000     1.569000000
H     2.935000000     2.225000000     2.870000000
O     4.378000000    -3.565000000    -4.703000000
H     4.117000000    -3.123000000    -3.895000000
H     3.798000000    -3.201000000    -5.372000000
O     4.217000000    -4.156000000     1.705000000
H     3.456000000    -4.021000000     2.268000000
H     4.671000000    -4.906000000     2.091000000
O     0.234000000     5.877000000    -2.566000000
H    -0.394000000     6.597000000    -2.632000000
H     0.309000000     5.709000000    -1.627000000
O    -2.647000000    -0.763000000     3.394000000
H    -1.746000000    -0.722000000     3.714000000
H    -2.969000000     0.136000000     3.468000000
O     1.582000000    -4.028000000     2.651000000
H     1.216000000    -4.212000000     1.786000000
H     1.159000000    -3.213000000     2.921000000
O    -1.984000000    -1.702000000     8.510000000
H    -1.170000000    -1.296000000     8.807000000
H    -1.975000000    -1.588000000     7.560000000
O     2.431000000    -3.969000000     7.491000000
H     2.484000000    -3.326000000     8.198000000
H     2.362000000    -3.443000000     6.694000000
O     2.483000000    -4.789000000    -1.840000000
H     1.941000000    -5.016000000    -1.085000000
H     3.249000000    -5.357000000    -1.765000000
O     1.099000000     1.314000000    -6.471000000
H     1.503000000     2.132000000    -6.183000000
H     0.567000000     1.034000000    -5.726000000
O    -5.642000000     2.887000000    -1.717000000
H    -4.738000000     3.196000000    -1.668000000
H    -6.104000000     3.389000000    -1.046000000
O    -2.706000000    -3.117000000    -3.229000000
H    -1.886000000    -3.484000000    -3.559000000
H    -3.356000000    -3.350000000    -3.892000000
O    -2.077000000     2.104000000    -3.983000000
H    -1.339000000     2.680000000    -3.783000000
H    -1.713000000     1.220000000    -3.924000000
O    -0.345000000     5.000000000     0.064000000
H    -0.889000000     4.510000000     0.681000000
H     0.539000000     4.661000000     0.202000000
O    -4.592000000    -1.812000000     1.774000000
H    -3.828000000    -1.551000000     2.288000000
H    -4.894000000    -1.001000000     1.365000000
O    -0.952000000    -0.103000000    -4.760000000
H    -1.329000000    -0.002000000    -5.634000000
H    -0.813000000    -1.046000000    -4.667000000
