158
-3034.99069
C    -1.139000000    -0.917000000     0.410000000
H    -1.793000000    -1.711000000     0.760000000
C    -0.166000000    -1.166000000    -0.643000000
H    -0.211000000    -2.123000000    -1.156000000
C     0.820000000    -0.197000000    -0.911000000
H     1.467000000    -0.232000000    -1.836000000
C     0.769000000     1.008000000    -0.336000000
H     1.462000000     1.786000000    -0.644000000
C    -0.170000000     1.237000000     0.690000000
H    -0.093000000     2.245000000     1.088000000
C    -1.129000000     0.275000000     1.085000000
C    -2.118000000     0.544000000     2.187000000
O    -3.181000000    -0.130000000     2.306000000
O    -1.835000000     1.431000000     3.004000000
O     3.400000000     3.183000000    -2.065000000
H     3.589000000     3.979000000    -2.562000000
H     2.645000000     2.797000000    -2.509000000
O     6.165000000    -4.896000000    -2.240000000
H     6.052000000    -3.950000000    -2.333000000
H     6.205000000    -5.040000000    -1.295000000
O     4.830000000    -1.155000000     0.473000000
H     5.731000000    -1.146000000     0.796000000
H     4.763000000    -0.369000000    -0.070000000
O    -6.852000000     0.026000000     4.826000000
H    -6.101000000     0.617000000     4.761000000
H    -7.216000000     0.197000000     5.694000000
O    -4.078000000     5.055000000     4.931000000
H    -3.235000000     5.509000000     4.929000000
H    -3.985000000     4.380000000     5.604000000
O    -4.454000000    -1.914000000     0.602000000
H    -4.593000000    -1.500000000    -0.250000000
H    -4.189000000    -1.196000000     1.177000000
O    -1.623000000     1.579000000     5.497000000
H    -1.871000000     1.570000000     4.573000000
H    -0.834000000     1.037000000     5.539000000
O    -1.353000000    -0.244000000    -4.107000000
H    -1.956000000    -0.875000000    -4.501000000
H    -0.495000000    -0.665000000    -4.164000000
O    -5.233000000     1.149000000     0.265000000
H    -5.186000000     0.372000000     0.822000000
H    -4.366000000     1.549000000     0.338000000
O     0.936000000    -4.527000000     1.712000000
H     0.327000000    -4.825000000     1.036000000
H     1.322000000    -3.729000000     1.351000000
O     4.853000000     0.918000000    -1.274000000
H     4.211000000     1.540000000    -1.616000000
H     5.695000000     1.239000000    -1.598000000
O     1.176000000     6.116000000     4.190000000
H     0.707000000     6.220000000     5.018000000
H     1.078000000     5.188000000     3.975000000
O    -0.389000000     3.623000000     3.751000000
H    -0.910000000     2.904000000     3.394000000
H     0.493000000     3.472000000     3.411000000
O     2.563000000    -0.106000000     2.081000000
H     1.718000000     0.082000000     1.672000000
H     3.055000000    -0.575000000     1.408000000
O     1.948000000     3.021000000     2.836000000
H     2.678000000     2.763000000     3.400000000
H     2.336000000     3.103000000     1.965000000
O     5.003000000     0.459000000    -5.230000000
H     5.638000000     0.519000000    -4.516000000
H     4.246000000     0.021000000    -4.841000000
O     2.483000000     0.134000000     4.887000000
H     2.485000000     1.074000000     5.071000000
H     2.493000000     0.077000000     3.932000000
O    -2.005000000     6.714000000     3.874000000
H    -1.578000000     5.858000000     3.887000000
H    -2.029000000     6.956000000     2.948000000
O    -6.401000000    -4.247000000     0.317000000
H    -5.681000000    -3.867000000     0.821000000
H    -6.762000000    -3.511000000    -0.177000000
O    -2.568000000     0.938000000    -2.078000000
H    -2.107000000     1.718000000    -1.768000000
H    -1.957000000     0.527000000    -2.690000000
O    -4.330000000    -1.184000000    -2.296000000
H    -3.536000000    -0.654000000    -2.234000000
H    -5.023000000    -0.555000000    -2.497000000
O    -3.672000000    -5.802000000     1.814000000
H    -3.292000000    -6.089000000     2.644000000
H    -2.922000000    -5.710000000     1.227000000
O    -5.178000000     4.839000000     2.421000000
H    -4.775000000     5.063000000     3.260000000
H    -6.064000000     4.557000000     2.649000000
O    -1.749000000    -3.650000000    -4.130000000
H    -0.851000000    -3.321000000    -4.181000000
H    -2.028000000    -3.448000000    -3.237000000
O    -2.831000000    -3.534000000    -0.979000000
H    -2.933000000    -2.698000000    -1.432000000
H    -3.540000000    -3.547000000    -0.336000000
O     0.497000000     4.719000000    -1.882000000
H     1.389000000     4.386000000    -1.981000000
H     0.563000000     5.649000000    -2.098000000
O     5.783000000    -2.230000000    -2.437000000
H     4.980000000    -1.810000000    -2.129000000
H     6.401000000    -1.509000000    -2.554000000
O     3.211000000     3.541000000     0.599000000
H     3.488000000     4.415000000     0.327000000
H     3.202000000     3.030000000    -0.211000000
O    -2.034000000     6.432000000     1.146000000
H    -2.925000000     6.738000000     0.974000000
H    -2.116000000     5.480000000     1.211000000
O     2.211000000     3.909000000    -6.060000000
H     1.428000000     4.403000000    -6.304000000
H     1.974000000     2.994000000    -6.217000000
O    -0.117000000     0.113000000     7.603000000
H    -0.767000000     0.722000000     7.252000000
H    -0.053000000     0.340000000     8.531000000
O    -0.607000000    -5.141000000    -0.485000000
H    -0.117000000    -5.529000000    -1.210000000
H    -1.324000000    -4.667000000    -0.907000000
O     2.144000000    -4.256000000    -2.524000000
H     2.613000000    -5.064000000    -2.731000000
H     1.688000000    -4.447000000    -1.704000000
O    -7.417000000    -2.054000000     3.095000000
H    -7.021000000    -1.454000000     3.728000000
H    -6.757000000    -2.735000000     2.966000000
O    -1.767000000     4.437000000     6.426000000
H    -1.121000000     4.395000000     5.721000000
H    -2.167000000     3.567000000     6.437000000
O     2.240000000    -2.575000000     0.315000000
H     2.000000000    -2.123000000    -0.494000000
H     3.191000000    -2.486000000     0.366000000
O    -4.069000000     2.838000000     6.371000000
H    -3.966000000     2.137000000     7.015000000
H    -4.074000000     2.388000000     5.526000000
O    -3.570000000    -1.419000000     4.538000000
H    -3.485000000    -0.855000000     3.769000000
H    -3.491000000    -0.822000000     5.282000000
O    -4.927000000    -3.776000000     3.369000000
H    -4.414000000    -3.041000000     3.707000000
H    -4.278000000    -4.358000000     2.974000000
O    -4.526000000     1.771000000     3.538000000
H    -3.973000000     1.051000000     3.234000000
H    -4.646000000     2.324000000     2.766000000
O     0.861000000    -1.501000000    -5.227000000
H     1.798000000    -1.688000000    -5.172000000
H     0.764000000    -1.001000000    -6.037000000
O     1.336000000     1.993000000    -3.601000000
H     0.619000000     1.632000000    -3.079000000
H     1.046000000     1.894000000    -4.508000000
O     3.246000000    -2.157000000    -4.084000000
H     2.874000000    -2.840000000    -3.525000000
H     4.072000000    -2.527000000    -4.397000000
O     0.105000000    -4.733000000     4.354000000
H     0.374000000    -4.884000000     3.448000000
H     0.384000000    -3.837000000     4.541000000
O    -3.926000000    -3.548000000     6.458000000
H    -3.972000000    -2.888000000     5.766000000
H    -3.052000000    -3.926000000     6.370000000
O    -1.866000000     3.528000000    -1.598000000
H    -2.199000000     3.948000000    -0.805000000
H    -1.009000000     3.931000000    -1.740000000
O     0.524000000     1.811000000    -6.010000000
H    -0.400000000     2.060000000    -5.985000000
H     0.575000000     1.147000000    -6.698000000
O    -2.705000000     3.792000000     1.541000000
H    -3.611000000     4.030000000     1.738000000
H    -2.441000000     3.231000000     2.271000000
