158
-3045.15567
C    -0.375000000    -1.272000000     0.667000000
H    -0.637000000    -2.219000000     1.131000000
C     0.030000000    -1.134000000    -0.656000000
H     0.124000000    -1.986000000    -1.325000000
C     0.251000000     0.100000000    -1.196000000
H     0.617000000     0.093000000    -2.217000000
C     0.031000000     1.244000000    -0.438000000
H     0.290000000     2.252000000    -0.752000000
C    -0.200000000     1.108000000     0.929000000
H    -0.206000000     1.977000000     1.583000000
C    -0.436000000    -0.162000000     1.494000000
C    -0.653000000    -0.407000000     3.008000000
O    -0.653000000    -1.526000000     3.494000000
O    -0.927000000     0.571000000     3.662000000
O     1.979000000     3.872000000    -2.862000000
H     2.621000000     3.650000000    -3.536000000
H     1.139000000     3.607000000    -3.236000000
O    -3.650000000     4.777000000     4.355000000
H    -4.139000000     4.564000000     3.560000000
H    -2.931000000     4.145000000     4.370000000
O    -3.165000000    -2.296000000     2.806000000
H    -3.513000000    -1.497000000     2.411000000
H    -2.238000000    -2.106000000     2.952000000
O    -0.977000000     1.891000000     6.720000000
H    -0.297000000     1.497000000     6.173000000
H    -1.010000000     1.334000000     7.499000000
O    -2.470000000     0.709000000    -3.498000000
H    -2.782000000     0.953000000    -4.370000000
H    -1.914000000    -0.055000000    -3.648000000
O    -4.280000000     0.052000000     1.581000000
H    -5.078000000     0.558000000     1.733000000
H    -4.269000000    -0.099000000     0.636000000
O     0.722000000    -4.431000000     0.281000000
H     0.870000000    -4.798000000    -0.591000000
H     1.315000000    -3.681000000     0.330000000
O     4.150000000    -0.410000000    -1.346000000
H     4.083000000    -0.971000000    -2.119000000
H     3.693000000     0.394000000    -1.593000000
O    -0.945000000     3.962000000     3.979000000
H    -1.177000000     3.038000000     4.071000000
H     0.003000000     3.960000000     3.846000000
O     3.593000000     2.090000000     2.126000000
H     3.563000000     2.305000000     1.194000000
H     3.654000000     1.135000000     2.150000000
O     1.837000000     3.860000000     3.566000000
H     1.894000000     4.807000000     3.434000000
H     2.373000000     3.487000000     2.866000000
O     3.369000000     1.253000000    -3.245000000
H     2.784000000     0.931000000    -3.930000000
H     4.163000000     1.514000000    -3.712000000
O     1.280000000     1.589000000     4.960000000
H     1.562000000     2.391000000     4.520000000
H     0.524000000     1.292000000     4.454000000
O    -1.155000000    -3.841000000     5.538000000
H    -0.754000000    -4.438000000     4.906000000
H    -1.414000000    -3.081000000     5.017000000
O    -3.075000000     1.347000000    -1.003000000
H    -2.186000000     1.239000000    -0.665000000
H    -2.956000000     1.548000000    -1.932000000
O    -4.556000000    -0.791000000    -1.291000000
H    -4.146000000    -1.267000000    -2.013000000
H    -4.169000000     0.084000000    -1.331000000
O     2.542000000    -3.956000000    -3.026000000
H     3.481000000    -3.856000000    -2.873000000
H     2.312000000    -3.223000000    -3.596000000
O    -3.303000000    -3.019000000    -0.003000000
H    -3.628000000    -2.168000000    -0.295000000
H    -3.115000000    -2.897000000     0.928000000
O     1.072000000    -6.001000000    -2.020000000
H     1.616000000    -5.487000000    -2.618000000
H     1.668000000    -6.656000000    -1.658000000
O     4.523000000     3.973000000    -4.262000000
H     5.119000000     4.093000000    -3.522000000
H     4.920000000     4.475000000    -4.973000000
O    -2.600000000    -4.506000000    -2.454000000
H    -2.584000000    -3.759000000    -1.856000000
H    -2.112000000    -5.190000000    -1.995000000
O     1.087000000     5.730000000    -1.153000000
H     1.773000000     5.988000000    -0.537000000
H     1.452000000     4.976000000    -1.617000000
O     0.825000000    -1.962000000     7.496000000
H     0.484000000    -1.081000000     7.647000000
H     0.068000000    -2.536000000     7.614000000
O     3.558000000     3.193000000    -0.501000000
H     3.875000000     4.094000000    -0.561000000
H     3.253000000     2.987000000    -1.384000000
O    -0.495000000     7.180000000     0.673000000
H    -1.383000000     7.162000000     0.315000000
H    -0.003000000     6.570000000     0.123000000
O    -3.292000000     4.009000000    -2.603000000
H    -2.646000000     3.970000000    -1.898000000
H    -4.121000000     3.786000000    -2.181000000
O     1.536000000    -2.540000000     4.434000000
H     0.704000000    -2.148000000     4.167000000
H     1.529000000    -2.487000000     5.390000000
O     2.922000000    -2.709000000    -0.006000000
H     2.859000000    -1.803000000    -0.310000000
H     3.012000000    -2.636000000     0.945000000
O    -3.039000000    -5.110000000     2.945000000
H    -3.256000000    -4.183000000     2.850000000
H    -2.399000000    -5.278000000     2.253000000
O     4.641000000    -4.686000000    -1.117000000
H     3.860000000    -4.159000000    -0.948000000
H     4.740000000    -5.226000000    -0.333000000
O     3.457000000    -2.115000000     2.549000000
H     2.903000000    -1.796000000     3.261000000
H     4.124000000    -2.646000000     2.985000000
O    -3.637000000     2.835000000     7.475000000
H    -4.041000000     1.974000000     7.579000000
H    -2.966000000     2.705000000     6.805000000
O    -2.946000000    -0.810000000     5.386000000
H    -2.147000000    -0.929000000     4.873000000
H    -2.858000000     0.064000000     5.767000000
O    -5.620000000    -0.409000000     4.542000000
H    -6.085000000    -0.973000000     3.924000000
H    -4.694000000    -0.551000000     4.345000000
O     6.359000000     1.784000000    -2.579000000
H     6.044000000     1.382000000    -1.769000000
H     6.427000000     2.716000000    -2.373000000
O    -1.494000000    -5.695000000     0.962000000
H    -0.740000000    -5.377000000     0.466000000
H    -1.790000000    -6.468000000     0.481000000
O    -3.123000000     2.227000000     3.020000000
H    -3.548000000     1.765000000     2.298000000
H    -2.463000000     1.613000000     3.342000000
O    -0.542000000    -0.974000000    -4.680000000
H     0.154000000    -1.609000000    -4.850000000
H    -0.357000000    -0.250000000    -5.278000000
O    -0.689000000     2.895000000    -3.555000000
H    -1.100000000     3.546000000    -2.986000000
H    -1.207000000     2.101000000    -3.423000000
O     1.526000000    -2.790000000    -5.601000000
H     0.966000000    -3.239000000    -6.235000000
H     2.374000000    -3.228000000    -5.680000000
O     0.898000000    -4.920000000     3.306000000
H     0.550000000    -4.770000000     2.427000000
H     1.067000000    -4.043000000     3.650000000
O     2.907000000     1.149000000     7.119000000
H     2.315000000     1.034000000     6.376000000
H     3.438000000     0.352000000     7.128000000
O    -2.878000000     1.588000000    -6.216000000
H    -2.696000000     2.434000000    -6.627000000
H    -3.571000000     1.205000000    -6.753000000
O    -1.311000000     4.267000000    -0.886000000
H    -1.545000000     4.348000000     0.039000000
H    -0.516000000     4.792000000    -0.980000000
O    -0.461000000     0.357000000    -7.089000000
H    -1.384000000     0.542000000    -6.916000000
H    -0.222000000     0.965000000    -7.789000000
O     2.163000000    -0.145000000    -5.690000000
H     2.059000000    -1.086000000    -5.830000000
H     1.441000000     0.251000000    -6.179000000
O     0.281000000     4.044000000    -6.002000000
H    -0.511000000     4.201000000    -6.516000000
H    -0.035000000     3.655000000    -5.186000000
O    -1.869000000     4.664000000     1.665000000
H    -2.785000000     4.866000000     1.854000000
H    -1.507000000     4.385000000     2.506000000
