158
-3056.69876
C    -0.855000000    -0.926000000     0.776000000
H    -1.609000000    -1.628000000     1.123000000
C    -1.293000000    -0.061000000    -0.235000000
H    -2.287000000    -0.133000000    -0.667000000
C    -0.403000000     0.796000000    -0.837000000
H    -0.761000000     1.426000000    -1.632000000
C     0.910000000     0.905000000    -0.344000000
H     1.704000000     1.571000000    -0.672000000
C     1.320000000     0.079000000     0.722000000
H     2.355000000     0.208000000     1.028000000
C     0.432000000    -0.887000000     1.241000000
C     0.938000000    -2.042000000     2.111000000
O     0.126000000    -2.881000000     2.525000000
O     2.126000000    -2.192000000     2.457000000
O     4.565000000     4.584000000    -1.676000000
H     4.386000000     4.749000000    -0.750000000
H     5.519000000     4.534000000    -1.730000000
O    -6.429000000    -1.201000000    -2.324000000
H    -6.561000000    -1.305000000    -1.382000000
H    -5.481000000    -1.273000000    -2.443000000
O    -1.294000000     3.313000000    -5.952000000
H    -0.492000000     3.794000000    -6.155000000
H    -1.788000000     3.901000000    -5.381000000
O    -6.064000000    -0.977000000     0.540000000
H    -5.400000000    -1.632000000     0.323000000
H    -5.591000000    -0.315000000     1.044000000
O    -1.102000000     1.936000000     5.013000000
H    -1.318000000     1.190000000     5.573000000
H    -0.426000000     1.603000000     4.422000000
O     2.428000000    -5.645000000     0.274000000
H     1.662000000    -5.667000000     0.848000000
H     3.121000000    -5.265000000     0.814000000
O    -5.002000000    -0.162000000    -5.704000000
H    -5.511000000    -0.840000000    -5.260000000
H    -4.992000000     0.571000000    -5.088000000
O    -4.439000000    -3.591000000     0.373000000
H    -3.911000000    -3.785000000    -0.402000000
H    -5.137000000    -4.245000000     0.358000000
O     4.996000000     2.375000000     1.355000000
H     4.872000000     1.765000000     0.627000000
H     5.945000000     2.478000000     1.421000000
O    -2.114000000     4.427000000    -1.110000000
H    -2.541000000     3.859000000    -1.751000000
H    -2.650000000     4.343000000    -0.321000000
O    -1.329000000    -3.404000000     4.681000000
H    -1.243000000    -4.356000000     4.727000000
H    -0.705000000    -3.139000000     4.005000000
O     2.265000000     3.284000000     5.128000000
H     1.801000000     2.635000000     4.599000000
H     1.732000000     3.372000000     5.919000000
O     0.211000000     1.671000000    -4.460000000
H    -0.260000000     0.915000000    -4.109000000
H    -0.432000000     2.123000000    -5.006000000
O     2.569000000    -1.610000000    -4.229000000
H     2.705000000    -0.669000000    -4.120000000
H     1.998000000    -1.683000000    -4.993000000
O     0.760000000    -2.181000000    -2.194000000
H     1.600000000    -1.899000000    -2.556000000
H     0.569000000    -1.542000000    -1.508000000
O    -0.145000000     3.064000000     1.608000000
H     0.389000000     2.324000000     1.319000000
H    -0.721000000     3.247000000     0.866000000
O     6.026000000    -4.368000000     0.462000000
H     5.362000000    -3.722000000     0.222000000
H     6.186000000    -4.858000000    -0.344000000
O     5.237000000     0.622000000     3.955000000
H     5.441000000     1.060000000     3.128000000
H     6.061000000     0.211000000     4.217000000
O    -2.237000000    -4.124000000    -1.448000000
H    -1.553000000    -4.382000000    -2.066000000
H    -2.000000000    -4.564000000    -0.631000000
O    -3.944000000    -1.734000000    -2.849000000
H    -3.011000000    -1.614000000    -2.671000000
H    -4.003000000    -2.605000000    -3.242000000
O    -0.188000000    -0.265000000    -7.825000000
H    -0.874000000    -0.619000000    -7.258000000
H    -0.564000000     0.538000000    -8.183000000
O    -3.692000000    -4.787000000     3.380000000
H    -3.281000000    -4.611000000     2.534000000
H    -3.689000000    -3.942000000     3.829000000
O     2.561000000     2.456000000    -5.716000000
H     2.804000000     3.106000000    -5.057000000
H     1.623000000     2.320000000    -5.584000000
O     4.524000000    -2.840000000    -2.493000000
H     3.841000000    -2.623000000    -3.128000000
H     4.323000000    -2.298000000    -1.730000000
O    -3.373000000     4.536000000    -4.387000000
H    -3.672000000     4.015000000    -3.642000000
H    -4.167000000     4.952000000    -4.722000000
O     3.589000000     4.424000000     2.424000000
H     3.974000000     3.562000000     2.265000000
H     2.816000000     4.247000000     2.959000000
O    -6.528000000     1.756000000    -0.734000000
H    -7.164000000     1.563000000    -1.423000000
H    -6.548000000     0.985000000    -0.167000000
O    -1.393000000    -6.771000000     3.583000000
H    -1.600000000    -7.479000000     2.973000000
H    -2.211000000    -6.612000000     4.053000000
O     4.071000000     0.106000000    -1.112000000
H     4.960000000     0.426000000    -1.263000000
H     3.563000000     0.456000000    -1.843000000
O     0.208000000     5.566000000    -1.660000000
H     0.008000000     5.612000000    -2.595000000
H    -0.537000000     5.102000000    -1.278000000
O     3.864000000    -2.285000000     0.416000000
H     3.699000000    -1.409000000     0.068000000
H     3.475000000    -2.273000000     1.291000000
O    -0.279000000    -0.866000000     5.392000000
H     0.235000000    -1.418000000     5.980000000
H    -0.950000000    -1.450000000     5.039000000
O     3.673000000    -1.645000000     4.846000000
H     3.285000000    -2.003000000     4.047000000
H     4.381000000    -1.081000000     4.536000000
O     0.470000000    -4.868000000    -2.392000000
H     1.003000000    -5.311000000    -1.731000000
H     0.666000000    -3.939000000    -2.274000000
O    -1.064000000    -4.789000000     1.053000000
H    -0.808000000    -3.956000000     1.449000000
H    -0.660000000    -5.454000000     1.610000000
O     1.576000000     0.964000000     4.080000000
H     1.162000000     0.223000000     4.522000000
H     2.275000000     0.571000000     3.556000000
O     2.344000000    -4.536000000     3.989000000
H     3.250000000    -4.348000000     4.235000000
H     2.056000000    -3.752000000     3.522000000
O    -3.768000000    -2.370000000     5.875000000
H    -2.832000000    -2.520000000     5.745000000
H    -3.864000000    -2.255000000     6.820000000
O     0.896000000    -6.387000000     2.522000000
H     0.113000000    -6.457000000     3.068000000
H     1.550000000    -5.983000000     3.092000000
O     5.107000000    -4.849000000     4.288000000
H     5.482000000    -4.261000000     4.944000000
H     5.491000000    -4.560000000     3.460000000
O    -3.345000000     3.745000000     1.277000000
H    -4.298000000     3.664000000     1.301000000
H    -3.061000000     3.494000000     2.156000000
O    -1.148000000    -0.763000000    -3.998000000
H    -1.411000000    -1.123000000    -4.845000000
H    -0.664000000    -1.474000000    -3.576000000
O     0.073000000     5.892000000    -4.346000000
H    -0.673000000     6.299000000    -4.786000000
H     0.781000000     5.931000000    -4.990000000
O    -4.168000000     2.370000000    -2.279000000
H    -3.987000000     1.793000000    -3.021000000
H    -4.929000000     1.978000000    -1.850000000
O     2.549000000     4.103000000    -3.383000000
H     1.787000000     4.344000000    -2.857000000
H     3.299000000     4.287000000    -2.817000000
O     2.627000000    -0.010000000     6.917000000
H     2.999000000    -0.727000000     6.403000000
H     2.628000000     0.738000000     6.319000000
O    -2.411000000    -1.326000000    -6.639000000
H    -2.492000000    -2.204000000    -7.010000000
H    -3.220000000    -0.883000000    -6.893000000
O     3.270000000     0.867000000    -3.595000000
H     2.514000000     1.278000000    -4.016000000
H     4.027000000     1.311000000    -3.976000000
