158
-3032.69173
C    -0.580000000    -1.225000000     0.581000000
H    -1.008000000    -2.163000000     0.924000000
C    -0.511000000    -0.904000000    -0.807000000
H    -0.979000000    -1.543000000    -1.551000000
C     0.102000000     0.274000000    -1.180000000
H    -0.015000000     0.422000000    -2.231000000
C     0.654000000     1.155000000    -0.288000000
H     1.177000000     2.057000000    -0.597000000
C     0.559000000     0.840000000     1.107000000
H     1.031000000     1.492000000     1.838000000
C    -0.083000000    -0.332000000     1.549000000
C    -0.105000000    -0.719000000     2.991000000
O    -0.560000000    -1.766000000     3.360000000
O     0.204000000     0.152000000     3.806000000
O    -3.434000000    -0.841000000    -3.003000000
H    -2.891000000    -0.654000000    -2.237000000
H    -3.321000000    -0.078000000    -3.569000000
O    -4.527000000    -1.469000000     0.269000000
H    -5.387000000    -1.579000000    -0.137000000
H    -4.526000000    -2.087000000     1.000000000
O    -1.611000000     3.043000000     1.897000000
H    -2.252000000     2.610000000     1.334000000
H    -2.010000000     3.032000000     2.767000000
O    -2.295000000     3.690000000     4.613000000
H    -1.476000000     3.195000000     4.586000000
H    -2.535000000     3.706000000     5.539000000
O    -4.538000000    -3.471000000    -2.553000000
H    -4.180000000    -3.376000000    -3.436000000
H    -4.402000000    -2.615000000    -2.147000000
O    -3.125000000    -1.063000000     3.324000000
H    -3.492000000    -1.858000000     2.936000000
H    -2.228000000    -1.302000000     3.556000000
O     2.274000000     0.131000000     5.399000000
H     1.700000000     0.250000000     4.643000000
H     2.063000000     0.863000000     5.978000000
O    -1.244000000     1.592000000    -4.932000000
H    -1.916000000     2.272000000    -4.970000000
H    -1.536000000     0.931000000    -5.560000000
O    -3.685000000     0.953000000     1.713000000
H    -3.468000000     0.305000000     2.384000000
H    -3.796000000     0.441000000     0.912000000
O     5.373000000     2.788000000    -1.975000000
H     4.989000000     2.168000000    -2.596000000
H     6.244000000     2.436000000    -1.793000000
O     3.737000000     0.754000000    -3.926000000
H     4.294000000     1.427000000    -4.316000000
H     2.858000000     0.955000000    -4.248000000
O     0.492000000     4.500000000     0.822000000
H     1.155000000     3.813000000     0.746000000
H    -0.218000000     4.093000000     1.319000000
O     2.725000000    -1.235000000     0.234000000
H     2.035000000    -0.693000000    -0.149000000
H     2.371000000    -1.511000000     1.079000000
O     2.653000000     4.118000000     4.467000000
H     3.205000000     4.051000000     3.687000000
H     3.255000000     4.376000000     5.165000000
O     4.345000000    -2.119000000     5.541000000
H     5.102000000    -1.600000000     5.812000000
H     3.615000000    -1.500000000     5.549000000
O    -4.025000000    -5.584000000     2.644000000
H    -3.979000000    -6.314000000     2.026000000
H    -3.141000000    -5.218000000     2.649000000
O    -4.872000000    -2.979000000     2.547000000
H    -4.816000000    -3.903000000     2.788000000
H    -5.715000000    -2.690000000     2.896000000
O    -0.607000000    -0.298000000    -7.228000000
H    -0.010000000    -0.972000000    -6.905000000
H    -1.365000000    -0.784000000    -7.552000000
O    -1.341000000    -0.415000000     5.956000000
H    -1.369000000    -1.362000000     6.095000000
H    -1.005000000    -0.314000000     5.065000000
O    -1.263000000     5.983000000    -0.953000000
H    -0.575000000     5.674000000    -1.541000000
H    -0.893000000     5.879000000    -0.076000000
O    -1.987000000    -4.697000000     0.058000000
H    -2.525000000    -5.482000000    -0.048000000
H    -2.495000000    -4.000000000    -0.357000000
O     3.553000000    -3.101000000    -1.903000000
H     3.024000000    -3.491000000    -1.207000000
H     3.967000000    -2.342000000    -1.493000000
O    -2.729000000     4.443000000    -3.973000000
H    -3.487000000     3.903000000    -3.750000000
H    -2.150000000     4.368000000    -3.215000000
O     4.104000000     4.020000000     2.240000000
H     3.857000000     3.308000000     1.651000000
H     4.344000000     4.740000000     1.658000000
O     4.032000000     1.717000000     7.112000000
H     4.143000000     2.665000000     7.037000000
H     3.846000000     1.427000000     6.218000000
O    -2.532000000    -3.680000000    -4.776000000
H    -1.675000000    -4.092000000    -4.664000000
H    -2.345000000    -2.858000000    -5.229000000
O     3.632000000     2.056000000     0.046000000
H     4.311000000     1.386000000     0.126000000
H     3.699000000     2.358000000    -0.859000000
O    -0.149000000    -5.909000000    -1.989000000
H    -0.966000000    -6.331000000    -2.252000000
H    -0.400000000    -5.323000000    -1.275000000
O     1.973000000    -6.074000000     3.955000000
H     1.760000000    -5.291000000     3.447000000
H     2.551000000    -5.760000000     4.650000000
O    -1.334000000     2.378000000     7.257000000
H    -0.525000000     2.771000000     6.928000000
H    -1.384000000     1.529000000     6.817000000
O     2.004000000    -3.359000000     2.889000000
H     1.303000000    -2.735000000     3.077000000
H     2.678000000    -3.165000000     3.540000000
O     2.706000000    -4.127000000    -4.308000000
H     3.506000000    -4.490000000    -4.688000000
H     2.965000000    -3.842000000    -3.431000000
O     5.432000000    -0.634000000     1.021000000
H     4.491000000    -0.771000000     0.918000000
H     5.779000000    -0.674000000     0.130000000
O    -1.199000000    -4.633000000     2.594000000
H    -0.768000000    -3.796000000     2.764000000
H    -1.337000000    -4.644000000     1.647000000
O     0.160000000     2.599000000     4.984000000
H     0.060000000     1.884000000     4.355000000
H     1.030000000     2.955000000     4.804000000
O     0.452000000    -3.486000000     6.196000000
H     0.344000000    -2.923000000     5.429000000
H    -0.439000000    -3.748000000     6.428000000
O    -4.059000000     0.459000000     5.578000000
H    -4.001000000     0.166000000     4.669000000
H    -3.151000000     0.486000000     5.880000000
O    -1.443000000    -6.647000000     4.311000000
H    -1.112000000    -6.006000000     3.682000000
H    -0.808000000    -6.630000000     5.027000000
O     5.160000000    -1.733000000    -3.927000000
H     4.781000000    -2.420000000    -3.380000000
H     4.640000000    -0.954000000    -3.728000000
O     1.697000000    -2.420000000    -6.399000000
H     2.551000000    -2.012000000    -6.542000000
H     1.834000000    -3.008000000    -5.656000000
O     1.372000000     1.261000000    -4.992000000
H     0.421000000     1.215000000    -5.086000000
H     1.658000000     1.818000000    -5.716000000
O    -0.153000000    -4.695000000    -4.544000000
H    -0.128000000    -4.917000000    -3.614000000
H     0.758000000    -4.514000000    -4.772000000
O     3.155000000    -4.555000000     0.706000000
H     2.518000000    -4.245000000     1.351000000
H     4.005000000    -4.329000000     1.082000000
O    -4.341000000     1.344000000    -4.483000000
H    -5.146000000     0.836000000    -4.379000000
H    -4.570000000     2.026000000    -5.114000000
O     0.857000000     4.749000000    -2.416000000
H     1.785000000     4.558000000    -2.282000000
H     0.843000000     5.380000000    -3.136000000
O    -4.724000000    -2.603000000     6.319000000
H    -4.085000000    -2.082000000     5.833000000
H    -4.868000000    -2.111000000     7.128000000
O    -1.217000000     3.094000000    -2.076000000
H    -0.986000000     2.475000000    -1.384000000
H    -0.376000000     3.421000000    -2.396000000
O     1.540000000     6.815000000     0.532000000
H     1.287000000     5.894000000     0.477000000
H     2.347000000     6.812000000     1.046000000
