158
-3029.77232
C    -0.256000000    -0.974000000    -1.153000000
H    -0.272000000    -1.537000000    -2.082000000
C    -0.477000000     0.437000000    -1.250000000
H    -0.512000000     0.951000000    -2.207000000
C    -0.189000000     1.194000000    -0.168000000
H    -0.243000000     2.286000000    -0.208000000
C     0.140000000     0.590000000     1.061000000
H     0.411000000     1.225000000     1.900000000
C     0.150000000    -0.767000000     1.223000000
H     0.405000000    -1.145000000     2.210000000
C     0.058000000    -1.585000000     0.064000000
C     0.291000000    -3.036000000     0.249000000
O    -0.159000000    -3.905000000    -0.532000000
O     0.764000000    -3.403000000     1.282000000
O    -0.199000000     4.986000000    -4.931000000
H     0.248000000     5.604000000    -4.352000000
H    -1.095000000     5.319000000    -4.991000000
O     2.558000000     1.637000000    -5.259000000
H     1.621000000     1.760000000    -5.111000000
H     2.878000000     1.235000000    -4.451000000
O     4.861000000    -5.058000000    -1.666000000
H     3.930000000    -4.837000000    -1.638000000
H     4.896000000    -5.894000000    -2.129000000
O    -0.420000000     7.233000000     4.677000000
H     0.125000000     8.005000000     4.526000000
H    -0.471000000     6.805000000     3.822000000
O    -3.323000000    -5.259000000    -0.837000000
H    -2.605000000    -5.781000000    -1.194000000
H    -2.893000000    -4.605000000    -0.285000000
O    -3.823000000    -2.751000000     1.908000000
H    -3.289000000    -3.057000000     2.640000000
H    -4.653000000    -2.493000000     2.309000000
O    -1.306000000    -3.919000000    -3.154000000
H    -1.355000000    -4.875000000    -3.177000000
H    -1.095000000    -3.712000000    -2.244000000
O    -0.470000000     7.899000000     1.093000000
H    -1.212000000     8.223000000     0.581000000
H    -0.727000000     7.014000000     1.352000000
O     2.900000000    -4.963000000     2.367000000
H     3.693000000    -4.734000000     1.882000000
H     2.223000000    -4.391000000     2.004000000
O    -0.060000000     3.224000000     4.816000000
H     0.305000000     2.348000000     4.690000000
H    -0.216000000     3.548000000     3.929000000
O    -0.637000000    -1.160000000     4.648000000
H    -0.107000000    -0.401000000     4.891000000
H    -1.541000000    -0.848000000     4.703000000
O    -3.330000000     4.478000000     3.722000000
H    -4.028000000     3.960000000     3.323000000
H    -3.666000000     4.707000000     4.588000000
O     3.424000000    -2.146000000     0.906000000
H     4.102000000    -2.820000000     0.954000000
H     2.615000000    -2.605000000     1.135000000
O     3.330000000     7.036000000    -0.666000000
H     4.037000000     7.205000000    -1.289000000
H     2.597000000     7.561000000    -0.987000000
O    -5.340000000     1.839000000     0.088000000
H    -4.808000000     1.089000000    -0.177000000
H    -6.132000000     1.771000000    -0.446000000
O    -3.702000000    -0.376000000    -0.387000000
H    -4.242000000    -1.116000000    -0.111000000
H    -2.878000000    -0.491000000     0.088000000
O     2.215000000     4.461000000     2.536000000
H     2.833000000     5.188000000     2.466000000
H     2.768000000     3.683000000     2.610000000
O    -5.194000000    -2.659000000    -0.473000000
H    -5.512000000    -3.432000000    -0.939000000
H    -4.520000000    -2.995000000     0.118000000
O     0.132000000     7.125000000    -3.412000000
H     0.411000000     7.744000000    -2.738000000
H    -0.682000000     7.495000000    -3.755000000
O    -4.098000000     4.146000000     0.986000000
H    -4.370000000     3.292000000     0.651000000
H    -3.499000000     4.485000000     0.320000000
O     1.069000000    -4.076000000    -4.500000000
H     0.326000000    -3.613000000    -4.114000000
H     0.865000000    -4.120000000    -5.434000000
O     0.612000000    -3.576000000     4.229000000
H     0.030000000    -2.840000000     4.418000000
H     0.749000000    -3.537000000     3.283000000
O     3.323000000     0.223000000    -3.279000000
H     3.065000000    -0.090000000    -2.412000000
H     4.185000000     0.618000000    -3.145000000
O     4.995000000    -4.181000000     0.850000000
H     5.899000000    -4.249000000     1.155000000
H     5.002000000    -4.591000000    -0.015000000
O     1.198000000     0.766000000     4.456000000
H     1.827000000     0.277000000     3.924000000
H     1.658000000     0.930000000     5.279000000
O     3.572000000     0.303000000    -0.105000000
H     3.561000000    -0.566000000     0.294000000
H     2.712000000     0.670000000     0.097000000
O     0.984000000     5.362000000    -0.029000000
H     1.614000000     5.984000000    -0.395000000
H     1.419000000     5.011000000     0.748000000
O    -3.998000000    -3.142000000    -4.509000000
H    -4.489000000    -2.359000000    -4.256000000
H    -3.084000000    -2.917000000    -4.336000000
O     3.922000000     2.317000000     2.582000000
H     4.831000000     2.514000000     2.806000000
H     3.761000000     1.455000000     2.964000000
O    -1.650000000     5.301000000    -0.917000000
H    -0.711000000     5.122000000    -0.893000000
H    -1.712000000     6.217000000    -1.187000000
O     3.239000000    -7.280000000    -0.141000000
H     2.432000000    -7.469000000     0.338000000
H     3.248000000    -6.327000000    -0.230000000
O     2.880000000    -6.083000000     4.663000000
H     3.326000000    -6.893000000     4.412000000
H     2.720000000    -5.632000000     3.834000000
O    -3.797000000     1.319000000    -2.956000000
H    -3.702000000     1.151000000    -2.018000000
H    -3.915000000     2.267000000    -3.018000000
O     2.183000000    -4.941000000    -1.620000000
H     1.410000000    -4.646000000    -1.139000000
H     1.996000000    -4.722000000    -2.533000000
O     0.605000000    -7.872000000    -3.583000000
H     0.106000000    -7.328000000    -2.974000000
H    -0.007000000    -8.056000000    -4.296000000
O    -3.228000000     0.638000000    -5.639000000
H    -3.214000000     0.529000000    -4.688000000
H    -2.960000000    -0.215000000    -5.982000000
O     3.938000000    -2.989000000     5.344000000
H     3.594000000    -3.822000000     5.020000000
H     4.855000000    -3.172000000     5.548000000
O     3.294000000    -0.776000000     3.565000000
H     3.501000000    -1.122000000     2.697000000
H     3.506000000    -1.491000000     4.165000000
O    -3.338000000    -1.083000000     4.873000000
H    -3.923000000    -0.574000000     5.434000000
H    -3.862000000    -1.282000000     4.098000000
O     0.145000000    -5.806000000     6.193000000
H     0.568000000    -5.273000000     5.519000000
H    -0.189000000    -5.170000000     6.826000000
O    -5.387000000    -1.051000000    -3.594000000
H    -5.009000000    -0.173000000    -3.528000000
H    -6.004000000    -1.102000000    -2.865000000
O    -1.658000000    -6.000000000     1.946000000
H    -1.519000000    -6.374000000     2.816000000
H    -1.316000000    -5.108000000     2.011000000
O    -0.816000000    -6.371000000    -1.613000000
H    -0.380000000    -7.008000000    -1.047000000
H    -0.388000000    -5.539000000    -1.410000000
O    -3.722000000     4.206000000    -2.301000000
H    -3.580000000     4.798000000    -3.041000000
H    -3.068000000     4.472000000    -1.654000000
O     0.199000000    -8.080000000     0.831000000
H    -0.343000000    -7.341000000     1.108000000
H     0.452000000    -8.510000000     1.647000000
O    -0.298000000     2.151000000    -5.643000000
H    -1.254000000     2.144000000    -5.680000000
H    -0.073000000     3.056000000    -5.427000000
O    -1.519000000     5.409000000     2.099000000
H    -1.205000000     4.827000000     1.407000000
H    -2.244000000     4.931000000     2.503000000
O     5.141000000     3.720000000    -0.227000000
H     5.163000000     4.075000000    -1.115000000
H     4.294000000     3.280000000    -0.165000000
