158
-3061.89686
C    -0.861000000    -1.079000000     0.476000000
H    -1.473000000    -1.941000000     0.730000000
C    -0.848000000    -0.505000000    -0.812000000
H    -1.478000000    -0.904000000    -1.602000000
C    -0.087000000     0.594000000    -1.143000000
H    -0.217000000     1.132000000    -2.084000000
C     0.815000000     1.009000000    -0.199000000
H     1.439000000     1.880000000    -0.381000000
C     0.894000000     0.418000000     1.122000000
H     1.537000000     0.798000000     1.911000000
C     0.042000000    -0.639000000     1.449000000
C     0.182000000    -1.296000000     2.770000000
O    -0.504000000    -2.280000000     3.057000000
O     0.908000000    -0.869000000     3.598000000
O     2.053000000     6.046000000    -4.681000000
H     2.239000000     5.252000000    -4.179000000
H     1.125000000     5.976000000    -4.904000000
O     3.577000000     3.295000000    -1.338000000
H     2.881000000     3.642000000    -0.781000000
H     3.141000000     3.085000000    -2.164000000
O    -3.312000000    -0.998000000     2.804000000
H    -3.232000000    -0.195000000     3.318000000
H    -2.497000000    -1.471000000     2.971000000
O    -2.041000000     1.347000000    -5.057000000
H    -2.184000000     1.724000000    -4.189000000
H    -1.985000000     0.404000000    -4.903000000
O    -2.855000000     2.262000000     3.427000000
H    -2.166000000     1.749000000     3.849000000
H    -2.491000000     2.496000000     2.573000000
O     3.544000000    -2.086000000     0.767000000
H     3.343000000    -2.041000000    -0.168000000
H     2.689000000    -2.061000000     1.197000000
O     0.623000000     3.540000000     2.617000000
H     1.428000000     3.185000000     2.995000000
H     0.260000000     4.095000000     3.308000000
O    -2.650000000     0.193000000     6.159000000
H    -2.092000000    -0.495000000     6.520000000
H    -2.043000000     0.789000000     5.721000000
O     4.860000000     0.295000000     1.639000000
H     4.668000000    -0.580000000     1.303000000
H     4.436000000     0.320000000     2.497000000
O    -1.283000000     2.566000000     0.855000000
H    -0.676000000     2.708000000     1.581000000
H    -0.857000000     1.902000000     0.313000000
O     2.558000000     3.032000000    -3.727000000
H     1.651000000     2.933000000    -4.018000000
H     3.081000000     2.827000000    -4.502000000
O     1.988000000    -1.152000000     6.135000000
H     2.547000000    -1.925000000     6.217000000
H     1.656000000    -1.192000000     5.238000000
O    -2.744000000    -4.126000000     3.881000000
H    -3.208000000    -4.240000000     3.052000000
H    -1.851000000    -3.893000000     3.626000000
O    -4.032000000     1.666000000    -0.903000000
H    -3.662000000     1.269000000    -0.115000000
H    -4.955000000     1.414000000    -0.888000000
O     0.839000000    -5.953000000     3.619000000
H     0.454000000    -6.829000000     3.640000000
H     1.770000000    -6.104000000     3.455000000
O     0.220000000    -0.044000000    -7.552000000
H     0.605000000    -0.677000000    -8.158000000
H     0.573000000    -0.286000000    -6.696000000
O    -4.472000000    -1.998000000     0.598000000
H    -5.094000000    -1.286000000     0.446000000
H    -3.916000000    -1.682000000     1.310000000
O     3.010000000     0.014000000    -3.164000000
H     3.900000000    -0.069000000    -3.508000000
H     2.942000000     0.931000000    -2.898000000
O    -2.730000000    -3.938000000    -0.587000000
H    -3.272000000    -3.210000000    -0.282000000
H    -2.125000000    -4.105000000     0.135000000
O    -1.449000000    -5.882000000     6.245000000
H    -1.571000000    -6.770000000     5.907000000
H    -2.099000000    -5.357000000     5.778000000
O     4.468000000     0.089000000     4.420000000
H     4.101000000    -0.761000000     4.661000000
H     3.931000000     0.725000000     4.892000000
O     1.213000000    -3.536000000     4.699000000
H     0.513000000    -2.966000000     4.379000000
H     1.016000000    -4.393000000     4.321000000
O     1.979000000    -1.674000000    -1.361000000
H     1.065000000    -1.403000000    -1.455000000
H     2.435000000    -1.231000000    -2.076000000
O     3.234000000     3.844000000     4.000000000
H     2.778000000     3.324000000     4.661000000
H     4.142000000     3.873000000     4.302000000
O     5.676000000     1.672000000    -0.707000000
H     5.357000000     1.110000000     0.000000000
H     5.002000000     2.345000000    -0.800000000
O     0.967000000    -0.734000000    -5.090000000
H     1.758000000    -0.668000000    -4.555000000
H     0.422000000    -1.374000000    -4.633000000
O    -0.138000000     6.845000000     0.059000000
H     0.594000000     7.433000000    -0.128000000
H     0.215000000     5.968000000    -0.087000000
O     0.384000000    -4.274000000     7.299000000
H    -0.188000000    -5.022000000     7.127000000
H     0.433000000    -3.813000000     6.462000000
O    -0.862000000    -3.042000000    -2.712000000
H    -1.288000000    -3.414000000    -1.940000000
H    -0.146000000    -3.648000000    -2.906000000
O     0.907000000    -4.869000000    -1.205000000
H     0.570000000    -4.476000000    -0.400000000
H     1.816000000    -4.573000000    -1.253000000
O    -4.802000000    -4.512000000     1.787000000
H    -5.031000000    -3.785000000     1.208000000
H    -5.034000000    -5.297000000     1.290000000
O    -2.414000000     4.164000000    -5.610000000
H    -2.984000000     4.215000000    -6.377000000
H    -2.131000000     3.250000000    -5.583000000
O     3.810000000    -2.881000000     4.851000000
H     2.878000000    -3.081000000     4.932000000
H     4.246000000    -3.727000000     4.957000000
O    -0.968000000    -1.349000000     7.335000000
H    -1.556000000    -2.100000000     7.257000000
H    -0.092000000    -1.718000000     7.223000000
O    -3.145000000     1.215000000    -7.467000000
H    -3.042000000     2.074000000    -7.876000000
H    -2.788000000     1.326000000    -6.585000000
O    -0.512000000     1.086000000     4.975000000
H     0.035000000     0.357000000     4.681000000
H    -0.084000000     1.400000000     5.772000000
O     2.561000000     2.230000000     6.122000000
H     1.740000000     2.104000000     6.597000000
H     3.241000000     2.141000000     6.790000000
O    -2.673000000     5.928000000    -2.056000000
H    -2.917000000     5.432000000    -1.275000000
H    -2.959000000     6.823000000    -1.872000000
O    -2.824000000    -3.116000000     6.265000000
H    -2.936000000    -3.595000000     5.443000000
H    -3.677000000    -3.174000000     6.694000000
O    -2.307000000    -2.117000000    -4.685000000
H    -2.799000000    -2.921000000    -4.852000000
H    -1.804000000    -2.304000000    -3.892000000
O    -2.502000000     2.886000000    -2.762000000
H    -2.615000000     3.719000000    -2.305000000
H    -3.027000000     2.263000000    -2.258000000
O    -0.309000000    -4.160000000     1.047000000
H    -0.274000000    -5.000000000     1.504000000
H    -0.197000000    -3.506000000     1.738000000
O    -3.217000000     4.313000000    -0.152000000
H    -3.795000000     3.566000000    -0.307000000
H    -2.428000000     3.930000000     0.231000000
O     3.613000000     2.027000000    -6.181000000
H     4.509000000     2.362000000    -6.207000000
H     3.128000000     2.594000000    -6.781000000
O     0.445000000     2.831000000    -5.157000000
H    -0.271000000     2.503000000    -4.612000000
H     0.159000000     2.660000000    -6.055000000
O    -0.782000000     6.031000000    -4.518000000
H    -1.128000000     6.067000000    -3.626000000
H    -1.231000000     5.287000000    -4.920000000
O     1.804000000     4.710000000     0.375000000
H     1.219000000     4.227000000     0.959000000
H     2.286000000     5.301000000     0.953000000
O    -5.035000000    -4.234000000    -2.548000000
H    -4.161000000    -4.450000000    -2.222000000
H    -5.335000000    -3.527000000    -1.977000000
