158
-3014.46309
C     0.788000000    -0.040000000    -1.263000000
H     1.358000000    -0.144000000    -2.182000000
C    -0.551000000    -0.566000000    -1.051000000
H    -1.116000000    -1.011000000    -1.866000000
C    -1.179000000    -0.461000000     0.204000000
H    -2.132000000    -0.818000000     0.375000000
C    -0.411000000     0.120000000     1.268000000
H    -0.861000000     0.249000000     2.249000000
C     0.893000000     0.612000000     1.037000000
H     1.312000000     1.173000000     1.868000000
C     1.481000000     0.521000000    -0.205000000
C     2.910000000     1.109000000    -0.479000000
O     3.537000000     0.801000000    -1.464000000
O     3.466000000     1.837000000     0.364000000
O    -3.002000000    -0.399000000     3.541000000
H    -2.648000000    -0.071000000     4.368000000
H    -2.856000000     0.314000000     2.919000000
O     4.738000000    -0.650000000     1.139000000
H     4.358000000    -0.582000000     2.015000000
H     4.532000000     0.188000000     0.724000000
O     0.648000000    -1.297000000    -5.685000000
H     1.214000000    -0.665000000    -5.242000000
H    -0.140000000    -1.334000000    -5.143000000
O     4.768000000     2.241000000     2.748000000
H     5.080000000     3.132000000     2.593000000
H     4.336000000     1.993000000     1.930000000
O    -1.683000000     2.599000000    -3.835000000
H    -2.080000000     2.918000000    -3.024000000
H    -2.223000000     1.850000000    -4.088000000
O    -6.275000000    -2.775000000     0.570000000
H    -5.885000000    -2.108000000     0.006000000
H    -7.046000000    -2.351000000     0.946000000
O    -5.764000000    -0.237000000     2.029000000
H    -6.235000000    -0.796000000     2.648000000
H    -4.850000000    -0.510000000     2.108000000
O     3.910000000     3.615000000    -2.051000000
H     3.279000000     3.764000000    -2.755000000
H     3.716000000     2.730000000    -1.740000000
O     6.846000000     1.491000000     4.189000000
H     6.677000000     0.643000000     4.598000000
H     6.178000000     1.566000000     3.508000000
O     1.185000000    -3.183000000    -0.940000000
H     1.006000000    -2.252000000    -0.806000000
H     1.841000000    -3.399000000    -0.276000000
O     7.221000000    -2.075000000     1.574000000
H     7.640000000    -1.796000000     0.759000000
H     6.359000000    -1.659000000     1.554000000
O     6.392000000     5.337000000    -1.336000000
H     6.815000000     4.989000000    -0.551000000
H     5.627000000     4.777000000    -1.463000000
O    -0.289000000     1.170000000     4.922000000
H     0.625000000     0.903000000     5.028000000
H    -0.759000000     0.689000000     5.603000000
O    -7.191000000    -2.212000000    -2.523000000
H    -6.960000000    -1.492000000    -1.937000000
H    -8.060000000    -2.488000000    -2.232000000
O    -3.052000000     0.350000000    -4.656000000
H    -2.719000000    -0.547000000    -4.666000000
H    -3.927000000     0.277000000    -4.274000000
O    -4.077000000     1.235000000     0.492000000
H    -4.857000000     0.919000000     0.948000000
H    -3.872000000     2.068000000     0.917000000
O     0.434000000    -2.890000000     2.044000000
H    -0.216000000    -3.069000000     1.365000000
H     0.518000000    -1.936000000     2.049000000
O    -2.477000000     0.202000000     6.336000000
H    -3.350000000     0.572000000     6.469000000
H    -2.079000000     0.212000000     7.206000000
O    -2.525000000    -6.568000000     2.816000000
H    -2.943000000    -7.189000000     3.412000000
H    -3.241000000    -6.237000000     2.275000000
O    -3.145000000     2.845000000    -1.687000000
H    -3.343000000     2.082000000    -1.144000000
H    -3.354000000     3.596000000    -1.131000000
O     0.446000000     3.295000000    -1.357000000
H     0.960000000     3.814000000    -0.739000000
H    -0.360000000     3.088000000    -0.884000000
O    -1.186000000     3.090000000     2.380000000
H    -0.233000000     3.040000000     2.461000000
H    -1.510000000     2.939000000     3.268000000
O    -1.710000000    -2.252000000    -4.423000000
H    -1.601000000    -2.909000000    -3.735000000
H    -2.471000000    -2.551000000    -4.921000000
O    -1.520000000    -4.182000000     0.669000000
H    -0.857000000    -4.871000000     0.641000000
H    -2.176000000    -4.506000000     1.287000000
O     5.764000000     2.016000000    -4.049000000
H     6.045000000     2.124000000    -3.140000000
H     5.480000000     1.104000000    -4.106000000
O     4.026000000    -1.471000000     3.822000000
H     3.686000000    -2.360000000     3.716000000
H     4.682000000    -1.546000000     4.514000000
O     2.152000000     4.368000000     0.452000000
H     2.522000000     3.548000000     0.125000000
H     2.226000000     4.302000000     1.404000000
O    -4.887000000    -1.012000000    -1.170000000
H    -4.316000000    -0.289000000    -0.909000000
H    -4.295000000    -1.659000000    -1.554000000
O     5.329000000    -0.713000000    -2.852000000
H     4.643000000    -0.390000000    -2.267000000
H     5.286000000    -1.665000000    -2.769000000
O    -4.375000000    -5.082000000     1.053000000
H    -4.576000000    -4.190000000     0.768000000
H    -4.941000000    -5.637000000     0.517000000
O    -4.354000000     3.445000000     2.178000000
H    -5.276000000     3.474000000     2.434000000
H    -3.882000000     3.291000000     2.997000000
O     0.956000000     3.560000000     4.731000000
H     0.283000000     2.884000000     4.816000000
H     0.482000000     4.385000000     4.839000000
O     4.332000000     3.871000000    -5.501000000
H     4.932000000     3.285000000    -5.039000000
H     3.497000000     3.766000000    -5.046000000
O     6.980000000     1.718000000    -0.847000000
H     7.082000000     0.775000000    -0.722000000
H     6.116000000     1.916000000    -0.486000000
O    -1.769000000    -4.164000000     5.105000000
H    -0.851000000    -3.945000000     4.943000000
H    -2.067000000    -4.564000000     4.289000000
O    -1.433000000    -3.843000000    -2.226000000
H    -1.860000000    -3.801000000    -1.370000000
H    -0.499000000    -3.770000000    -2.031000000
O     4.771000000    -0.413000000    -5.653000000
H     5.108000000    -0.606000000    -4.778000000
H     3.821000000    -0.383000000    -5.543000000
O     5.275000000     5.088000000     1.699000000
H     4.385000000     5.057000000     2.050000000
H     5.465000000     6.022000000     1.610000000
O    -3.380000000     2.993000000     4.824000000
H    -4.014000000     2.447000000     5.290000000
H    -3.169000000     3.694000000     5.440000000
O     2.994000000     1.235000000     4.635000000
H     3.127000000     0.427000000     4.139000000
H     3.542000000     1.882000000     4.190000000
O    -4.027000000    -2.395000000     5.179000000
H    -3.146000000    -2.640000000     5.461000000
H    -3.914000000    -1.550000000     4.745000000
O     3.790000000     6.642000000    -1.442000000
H     3.666000000     5.694000000    -1.480000000
H     4.602000000     6.797000000    -1.924000000
O     2.616000000     0.631000000    -4.366000000
H     2.796000000     0.660000000    -3.426000000
H     2.070000000     1.400000000    -4.528000000
O    -1.625000000     5.285000000     0.708000000
H    -1.695000000     4.521000000     1.282000000
H    -2.435000000     5.276000000     0.199000000
O     1.921000000     3.517000000    -3.812000000
H     1.441000000     4.168000000    -4.324000000
H     1.264000000     3.141000000    -3.226000000
O     4.036000000    -3.447000000     0.423000000
H     4.028000000    -2.607000000     0.882000000
H     4.961000000    -3.689000000     0.383000000
O    -7.358000000     2.267000000     1.699000000
H    -8.141000000     2.315000000     2.247000000
H    -6.819000000     1.591000000     2.110000000
O     2.920000000     5.100000000     3.238000000
H     2.289000000     4.833000000     3.907000000
H     3.443000000     5.782000000     3.660000000
