158
-3052.63531
C    -0.737000000    -0.967000000    -0.834000000
H    -1.368000000    -1.641000000    -1.406000000
C    -1.010000000    -0.797000000     0.498000000
H    -1.892000000    -1.227000000     0.967000000
C    -0.216000000     0.145000000     1.164000000
H    -0.571000000     0.409000000     2.190000000
C     0.889000000     0.805000000     0.569000000
H     1.432000000     1.561000000     1.131000000
C     1.186000000     0.462000000    -0.741000000
H     2.012000000     1.049000000    -1.136000000
C     0.329000000    -0.345000000    -1.506000000
C     0.554000000    -0.413000000    -3.006000000
O     1.311000000     0.365000000    -3.560000000
O    -0.168000000    -1.142000000    -3.681000000
O     5.777000000     3.046000000     0.196000000
H     5.615000000     2.135000000     0.439000000
H     5.241000000     3.186000000    -0.584000000
O     2.665000000     0.402000000    -7.362000000
H     3.575000000     0.635000000    -7.174000000
H     2.627000000    -0.545000000    -7.224000000
O    -3.408000000     0.419000000    -7.250000000
H    -2.746000000     0.264000000    -6.577000000
H    -3.324000000    -0.326000000    -7.845000000
O     6.235000000     1.714000000    -4.593000000
H     5.993000000     1.409000000    -5.467000000
H     5.638000000     1.253000000    -4.005000000
O     0.633000000    -2.886000000     4.145000000
H     1.547000000    -3.140000000     4.274000000
H     0.413000000    -2.379000000     4.926000000
O    -3.319000000     1.987000000    -4.558000000
H    -2.484000000     1.810000000    -4.993000000
H    -3.541000000     2.880000000    -4.821000000
O     1.289000000    -3.544000000    -0.137000000
H     0.448000000    -3.999000000    -0.178000000
H     1.074000000    -2.672000000     0.193000000
O     1.067000000     1.280000000     6.908000000
H     1.585000000     1.588000000     7.652000000
H     0.158000000     1.355000000     7.201000000
O    -2.628000000    -4.544000000     4.683000000
H    -2.196000000    -4.592000000     3.830000000
H    -2.993000000    -3.660000000     4.716000000
O    -4.525000000    -0.857000000     0.951000000
H    -4.167000000    -0.130000000     1.461000000
H    -4.948000000    -1.419000000     1.600000000
O    -1.806000000     2.368000000    -1.330000000
H    -1.775000000     1.455000000    -1.043000000
H    -2.632000000     2.441000000    -1.808000000
O    -3.570000000     1.192000000     2.346000000
H    -3.162000000     1.481000000     3.162000000
H    -4.094000000     1.941000000     2.062000000
O     4.780000000    -2.199000000    -5.492000000
H     4.984000000    -3.003000000    -5.014000000
H     3.898000000    -1.965000000    -5.202000000
O     0.829000000     3.293000000     3.474000000
H     1.554000000     2.848000000     3.035000000
H     0.660000000     4.065000000     2.934000000
O    -0.643000000    -4.813000000     2.752000000
H    -0.290000000    -4.005000000     3.126000000
H     0.038000000    -5.467000000     2.910000000
O     5.352000000     0.603000000     1.359000000
H     5.912000000    -0.109000000     1.668000000
H     4.723000000     0.177000000     0.776000000
O    -1.059000000    -0.119000000    -6.021000000
H    -0.795000000    -0.478000000    -5.174000000
H    -0.338000000     0.459000000    -6.271000000
O    -4.060000000    -2.202000000     5.064000000
H    -4.644000000    -2.379000000     5.801000000
H    -3.486000000    -1.502000000     5.376000000
O    -1.216000000     4.239000000     0.673000000
H    -1.453000000     3.345000000     0.430000000
H    -1.622000000     4.786000000     0.001000000
O     1.752000000    -4.860000000    -2.732000000
H     1.708000000    -4.192000000    -2.048000000
H     1.466000000    -5.665000000    -2.299000000
O    -0.248000000     3.201000000    -3.537000000
H     0.336000000     2.529000000    -3.889000000
H    -0.493000000     2.876000000    -2.671000000
O     1.912000000    -2.111000000    -5.120000000
H     2.112000000    -2.819000000    -4.507000000
H     1.276000000    -1.566000000    -4.657000000
O    -1.767000000     2.152000000     4.909000000
H    -2.288000000     2.811000000     5.368000000
H    -0.959000000     2.607000000     4.673000000
O    -1.400000000     4.402000000     6.238000000
H    -0.503000000     4.735000000     6.253000000
H    -1.692000000     4.459000000     7.148000000
O    -4.728000000     0.880000000    -2.580000000
H    -4.088000000     1.129000000    -3.247000000
H    -4.924000000     1.697000000    -2.121000000
O     3.200000000    -2.706000000     4.067000000
H     3.144000000    -1.896000000     3.559000000
H     4.055000000    -2.660000000     4.496000000
O    -0.103000000    -1.338000000     6.552000000
H    -0.964000000    -0.925000000     6.494000000
H     0.460000000    -0.666000000     6.937000000
O    -4.350000000    -3.582000000    -5.211000000
H    -3.662000000    -3.142000000    -4.712000000
H    -4.923000000    -3.962000000    -4.546000000
O     4.036000000     0.849000000    -3.057000000
H     3.210000000     0.711000000    -3.521000000
H     4.223000000     0.007000000    -2.643000000
O    -3.725000000    -1.576000000    -1.577000000
H    -3.678000000    -1.310000000    -0.659000000
H    -4.010000000    -0.788000000    -2.041000000
O    -1.375000000    -5.623000000    -3.199000000
H    -0.921000000    -6.140000000    -3.864000000
H    -1.327000000    -4.723000000    -3.521000000
O    -1.116000000    -4.542000000    -0.776000000
H    -1.114000000    -4.926000000    -1.653000000
H    -1.818000000    -5.001000000    -0.315000000
O    -5.816000000    -2.494000000     2.815000000
H    -5.471000000    -2.455000000     3.707000000
H    -5.447000000    -3.299000000     2.450000000
O    -5.165000000    -3.694000000    -1.654000000
H    -4.514000000    -2.993000000    -1.686000000
H    -5.896000000    -3.320000000    -1.163000000
O    -2.029000000    -2.953000000    -3.826000000
H    -2.461000000    -2.656000000    -3.025000000
H    -1.329000000    -2.316000000    -3.971000000
O     2.563000000     4.711000000    -4.084000000
H     2.025000000     4.019000000    -4.470000000
H     2.099000000     5.521000000    -4.293000000
O    -2.405000000     0.124000000     6.417000000
H    -2.642000000     0.621000000     7.199000000
H    -2.017000000     0.772000000     5.829000000
O     3.061000000     4.525000000     0.454000000
H     3.405000000     4.113000000    -0.339000000
H     2.353000000     5.089000000     0.143000000
O    -3.633000000    -5.706000000     0.202000000
H    -4.024000000    -5.059000000    -0.385000000
H    -3.940000000    -5.456000000     1.073000000
O     2.631000000    -2.290000000    -7.731000000
H     2.230000000    -2.400000000    -6.869000000
H     2.150000000    -2.893000000    -8.298000000
O     3.385000000     5.639000000     3.280000000
H     4.151000000     5.068000000     3.225000000
H     2.796000000     5.316000000     2.598000000
O     1.273000000     2.039000000    -5.750000000
H     1.787000000     1.637000000    -6.450000000
H     1.339000000     1.423000000    -5.020000000
O     3.870000000     3.391000000    -1.899000000
H     3.626000000     3.879000000    -2.686000000
H     3.843000000     2.473000000    -2.169000000
O     1.918000000    -0.488000000     2.946000000
H     1.342000000    -0.685000000     3.685000000
H     1.344000000    -0.518000000     2.181000000
O     5.131000000    -0.925000000    -0.902000000
H     6.086000000    -0.957000000    -0.847000000
H     4.867000000    -1.839000000    -1.008000000
O     0.869000000     5.614000000     2.276000000
H     0.382000000     5.164000000     1.585000000
H     0.903000000     6.526000000     1.990000000
O     3.499000000     1.933000000     3.094000000
H     3.332000000     1.024000000     2.845000000
H     3.776000000     2.357000000     2.282000000
O    -2.960000000     6.026000000     1.806000000
H    -2.866000000     6.078000000     2.757000000
H    -2.391000000     5.301000000     1.548000000
