158
-3054.96372
C    -0.551000000    -1.183000000    -0.690000000
H    -1.002000000    -1.968000000    -1.292000000
C    -0.650000000     0.105000000    -1.146000000
H    -1.273000000     0.235000000    -2.027000000
C    -0.031000000     1.174000000    -0.426000000
H     0.029000000     2.147000000    -0.820000000
C     0.628000000     0.844000000     0.756000000
H     1.054000000     1.623000000     1.383000000
C     0.556000000    -0.424000000     1.241000000
H     0.956000000    -0.648000000     2.226000000
C     0.085000000    -1.493000000     0.509000000
C     0.132000000    -2.867000000     1.072000000
O    -0.173000000    -3.871000000     0.417000000
O     0.887000000    -3.134000000     2.003000000
O     3.603000000    -0.239000000     0.966000000
H     4.273000000    -0.918000000     1.048000000
H     3.033000000    -0.549000000     0.262000000
O    -0.484000000     1.284000000    -5.133000000
H     0.466000000     1.292000000    -5.016000000
H    -0.760000000     0.432000000    -4.795000000
O    -1.346000000     5.074000000    -1.133000000
H    -2.128000000     4.621000000    -1.449000000
H    -1.122000000     5.684000000    -1.836000000
O     0.166000000     6.691000000    -3.144000000
H     1.047000000     6.704000000    -2.771000000
H     0.280000000     6.318000000    -4.018000000
O    -4.078000000    -4.210000000    -3.026000000
H    -4.100000000    -3.255000000    -3.098000000
H    -3.271000000    -4.395000000    -2.546000000
O    -4.463000000    -2.967000000     0.139000000
H    -3.902000000    -2.354000000     0.615000000
H    -4.082000000    -3.827000000     0.316000000
O     1.451000000    -2.145000000    -3.680000000
H     1.598000000    -3.034000000    -4.001000000
H     0.532000000    -1.966000000    -3.881000000
O     0.339000000    -4.658000000    -3.911000000
H     0.672000000    -5.555000000    -3.865000000
H    -0.388000000    -4.705000000    -4.532000000
O    -1.544000000    -4.440000000    -1.831000000
H    -0.997000000    -3.949000000    -2.444000000
H    -1.112000000    -4.329000000    -0.984000000
O     2.160000000     3.559000000     4.073000000
H     2.277000000     2.836000000     4.689000000
H     1.788000000     4.265000000     4.602000000
O    -0.159000000     4.872000000     1.132000000
H    -0.816000000     4.580000000     1.764000000
H    -0.646000000     4.986000000     0.316000000
O    -3.275000000     5.148000000    -3.415000000
H    -3.878000000     4.409000000    -3.334000000
H    -2.477000000     4.767000000    -3.779000000
O     2.867000000    -2.904000000     5.880000000
H     2.988000000    -2.124000000     6.422000000
H     3.755000000    -3.217000000     5.710000000
O     2.194000000     0.980000000    -4.858000000
H     2.816000000     0.292000000    -5.095000000
H     2.129000000     0.925000000    -3.904000000
O     2.715000000     6.987000000    -2.079000000
H     3.645000000     7.169000000    -1.946000000
H     2.487000000     6.377000000    -1.377000000
O    -3.422000000     1.991000000     1.238000000
H    -2.877000000     1.807000000     0.473000000
H    -2.943000000     1.604000000     1.972000000
O    -3.860000000    -1.102000000    -3.525000000
H    -4.388000000    -1.171000000    -4.320000000
H    -4.455000000    -0.731000000    -2.873000000
O    -0.669000000    -7.817000000    -1.763000000
H    -0.725000000    -7.768000000    -0.809000000
H    -0.639000000    -8.755000000    -1.953000000
O    -1.881000000    -6.457000000     3.075000000
H    -1.060000000    -6.503000000     3.564000000
H    -2.539000000    -6.807000000     3.676000000
O    -1.714000000     4.271000000     3.597000000
H    -1.213000000     3.816000000     4.274000000
H    -2.529000000     3.774000000     3.528000000
O    -1.951000000     1.177000000     3.364000000
H    -1.099000000     1.014000000     3.769000000
H    -2.587000000     0.947000000     4.042000000
O    -4.758000000     2.873000000    -2.838000000
H    -4.823000000     3.141000000    -1.921000000
H    -5.644000000     2.595000000    -3.069000000
O     2.773000000     3.690000000    -5.262000000
H     2.625000000     2.750000000    -5.156000000
H     3.719000000     3.796000000    -5.166000000
O     2.231000000     5.240000000    -0.179000000
H     1.386000000     5.222000000     0.271000000
H     2.729000000     4.526000000     0.217000000
O    -1.335000000     3.623000000    -4.584000000
H    -1.004000000     2.725000000    -4.601000000
H    -0.576000000     4.163000000    -4.802000000
O     1.991000000    -4.238000000    -1.487000000
H     1.252000000    -4.531000000    -0.955000000
H     1.611000000    -3.608000000    -2.099000000
O     2.893000000     1.176000000     5.199000000
H     3.773000000     1.540000000     5.105000000
H     2.970000000     0.546000000     5.916000000
O     0.343000000    -2.310000000     4.417000000
H     0.551000000    -2.391000000     3.486000000
H     1.161000000    -2.529000000     4.864000000
O     2.330000000    -0.016000000    -2.052000000
H     1.689000000     0.261000000    -1.398000000
H     1.908000000    -0.742000000    -2.510000000
O    -5.649000000    -0.622000000    -0.993000000
H    -6.472000000    -0.359000000    -0.581000000
H    -5.366000000    -1.389000000    -0.495000000
O    -1.180000000    -1.500000000    -4.433000000
H    -2.054000000    -1.321000000    -4.086000000
H    -1.330000000    -2.114000000    -5.153000000
O    -3.342000000    -6.851000000    -0.706000000
H    -2.485000000    -6.775000000    -1.127000000
H    -3.377000000    -6.112000000    -0.099000000
O     3.013000000     2.976000000     1.496000000
H     2.671000000     2.093000000     1.357000000
H     2.621000000     3.257000000     2.323000000
O     3.328000000    -5.438000000     4.217000000
H     2.439000000    -5.518000000     4.563000000
H     3.890000000    -5.470000000     4.991000000
O     3.675000000    -3.282000000     1.184000000
H     2.798000000    -3.028000000     1.470000000
H     3.771000000    -4.187000000     1.480000000
O    -4.418000000     2.152000000    -5.433000000
H    -3.588000000     1.971000000    -5.874000000
H    -4.167000000     2.400000000    -4.543000000
O     0.015000000     7.476000000     2.982000000
H     0.109000000     6.529000000     2.878000000
H    -0.916000000     7.606000000     3.164000000
O     0.196000000     0.328000000     4.857000000
H     0.202000000    -0.627000000     4.791000000
H     1.118000000     0.578000000     4.790000000
O    -2.785000000    -3.498000000     4.973000000
H    -2.628000000    -4.339000000     5.402000000
H    -1.928000000    -3.240000000     4.631000000
O     0.673000000     5.393000000    -5.388000000
H     0.943000000     5.699000000    -6.254000000
H     1.382000000     4.815000000    -5.106000000
O     0.452000000    -5.561000000     4.411000000
H     0.660000000    -5.704000000     3.487000000
H     0.415000000    -4.608000000     4.502000000
O    -4.768000000     3.987000000    -0.220000000
H    -5.370000000     4.528000000     0.290000000
H    -4.331000000     3.437000000     0.430000000
O    -2.475000000    -4.762000000     1.209000000
H    -2.378000000    -5.237000000     2.034000000
H    -1.594000000    -4.443000000     1.011000000
O     0.941000000    -5.980000000     1.663000000
H     0.447000000    -6.304000000     0.910000000
H     0.882000000    -5.027000000     1.595000000
O     2.880000000    -6.656000000    -0.756000000
H     2.872000000    -5.699000000    -0.768000000
H     3.093000000    -6.883000000     0.149000000
O    -1.097000000    -8.087000000     0.876000000
H    -1.531000000    -7.400000000     1.382000000
H    -1.472000000    -8.903000000     1.208000000
O     5.640000000     3.565000000     2.072000000
H     4.735000000     3.503000000     1.767000000
H     5.898000000     2.658000000     2.241000000
O     4.802000000     0.610000000    -1.515000000
H     3.945000000     0.480000000    -1.921000000
H     4.634000000     0.552000000    -0.575000000
