158
-3002.34028
C    -0.449000000    -1.141000000    -0.833000000
H    -0.591000000    -1.925000000    -1.572000000
C    -0.718000000     0.207000000    -1.122000000
H    -1.043000000     0.608000000    -2.078000000
C    -0.338000000     1.120000000    -0.186000000
H    -0.488000000     2.261000000    -0.388000000
C     0.279000000     0.753000000     0.966000000
H     0.688000000     1.474000000     1.669000000
C     0.608000000    -0.529000000     1.211000000
H     1.152000000    -0.714000000     2.133000000
C     0.291000000    -1.538000000     0.343000000
C     0.745000000    -2.944000000     0.596000000
O     0.323000000    -3.861000000    -0.093000000
O     1.465000000    -3.142000000     1.556000000
O     4.914000000    -0.568000000    -0.731000000
H     4.433000000    -1.033000000    -0.046000000
H     5.678000000    -1.118000000    -0.902000000
O     0.177000000     2.014000000    -3.981000000
H     0.838000000     1.922000000    -3.296000000
H    -0.076000000     1.116000000    -4.193000000
O    -4.263000000     4.711000000     0.028000000
H    -3.951000000     3.948000000     0.513000000
H    -4.076000000     5.454000000     0.602000000
O    -1.391000000     5.924000000    -2.428000000
H    -0.805000000     5.449000000    -1.838000000
H    -1.847000000     5.237000000    -2.916000000
O    -3.576000000    -3.493000000    -2.500000000
H    -3.165000000    -2.683000000    -2.802000000
H    -2.862000000    -4.131000000    -2.480000000
O    -4.193000000    -0.446000000     0.062000000
H    -4.017000000     0.300000000     0.635000000
H    -3.549000000    -1.105000000     0.321000000
O     2.764000000    -7.863000000     3.319000000
H     3.007000000    -7.753000000     4.238000000
H     2.174000000    -7.131000000     3.138000000
O     1.911000000    -1.811000000    -3.653000000
H     1.944000000    -2.639000000    -3.174000000
H     1.015000000    -1.763000000    -3.987000000
O     2.118000000    -4.100000000    -2.109000000
H     2.381000000    -4.100000000    -1.189000000
H     1.362000000    -4.685000000    -2.142000000
O    -3.045000000     6.984000000     2.009000000
H    -3.941000000     7.184000000     2.283000000
H    -2.768000000     6.279000000     2.594000000
O    -1.266000000    -4.924000000    -2.092000000
H    -0.615000000    -4.646000000    -1.447000000
H    -1.445000000    -5.838000000    -1.872000000
O     4.028000000     1.732000000     1.963000000
H     4.737000000     1.848000000     2.596000000
H     3.792000000     0.807000000     2.035000000
O     1.162000000     7.245000000     1.443000000
H     0.944000000     6.801000000     2.262000000
H     0.373000000     7.739000000     1.221000000
O    -3.196000000     4.780000000    -4.814000000
H    -4.000000000     4.454000000    -4.410000000
H    -2.886000000     4.051000000    -5.352000000
O     2.704000000    -1.222000000     5.019000000
H     3.001000000    -0.438000000     5.481000000
H     3.349000000    -1.892000000     5.245000000
O     3.075000000     5.930000000    -1.820000000
H     2.656000000     5.481000000    -1.085000000
H     3.546000000     6.659000000    -1.417000000
O    -3.577000000     1.987000000     1.009000000
H    -2.746000000     2.333000000     0.682000000
H    -3.414000000     1.806000000     1.934000000
O    -2.945000000    -1.060000000    -3.328000000
H    -3.803000000    -0.727000000    -3.592000000
H    -2.906000000    -0.901000000    -2.384000000
O    -6.825000000     2.908000000     0.204000000
H    -6.960000000     2.558000000     1.085000000
H    -5.880000000     2.850000000     0.065000000
O    -2.005000000    -7.506000000    -1.973000000
H    -2.853000000    -7.815000000    -1.653000000
H    -1.752000000    -8.147000000    -2.637000000
O    -1.506000000     4.584000000     2.814000000
H    -0.760000000     5.109000000     3.105000000
H    -1.325000000     3.705000000     3.147000000
O    -3.141000000     1.018000000     3.398000000
H    -2.716000000     0.164000000     3.483000000
H    -4.035000000     0.872000000     3.710000000
O    -0.698000000     2.145000000     4.188000000
H    -0.117000000     1.557000000     4.671000000
H    -1.495000000     1.633000000     4.051000000
O     0.251000000     4.990000000    -0.526000000
H     0.658000000     5.644000000     0.041000000
H     0.434000000     4.154000000    -0.097000000
O    -2.259000000     2.371000000    -5.515000000
H    -2.479000000     1.592000000    -6.025000000
H    -1.323000000     2.283000000    -5.334000000
O     3.806000000    -4.968000000     0.172000000
H     4.611000000    -4.920000000     0.688000000
H     3.144000000    -4.547000000     0.721000000
O     3.194000000     1.658000000     5.334000000
H     3.895000000     1.897000000     4.727000000
H     3.115000000     2.414000000     5.917000000
O     0.710000000    -3.044000000     4.261000000
H     1.160000000    -3.240000000     3.439000000
H     1.208000000    -2.320000000     4.640000000
O     2.014000000     0.737000000    -2.356000000
H     1.915000000     0.593000000    -1.415000000
H     1.887000000    -0.128000000    -2.745000000
O    -0.502000000    -0.797000000    -4.516000000
H    -1.324000000    -0.742000000    -4.029000000
H    -0.682000000    -1.418000000    -5.221000000
O     2.396000000     4.058000000     1.485000000
H     3.094000000     4.309000000     2.090000000
H     2.516000000     3.117000000     1.357000000
O     1.192000000    -5.894000000     1.804000000
H     0.403000000    -5.991000000     2.339000000
H     1.318000000    -4.947000000     1.734000000
O     4.046000000    -1.944000000     1.481000000
H     3.168000000    -2.294000000     1.633000000
H     4.558000000    -2.248000000     2.231000000
O     5.231000000    -5.741000000    -2.312000000
H     4.379000000    -5.399000000    -2.043000000
H     5.111000000    -6.691000000    -2.335000000
O     0.661000000     0.454000000     5.885000000
H     0.660000000    -0.265000000     6.517000000
H     1.582000000     0.706000000     5.810000000
O    -1.578000000    -1.074000000     4.053000000
H    -1.055000000    -0.620000000     4.713000000
H    -1.219000000    -1.961000000     4.030000000
O     0.795000000     6.044000000     3.989000000
H     1.575000000     5.606000000     4.330000000
H     0.423000000     6.495000000     4.747000000
O     0.519000000     3.767000000    -5.994000000
H     0.490000000     3.099000000    -5.308000000
H     1.446000000     3.997000000    -6.065000000
O    -1.499000000    -4.741000000     4.535000000
H    -1.623000000    -5.310000000     3.775000000
H    -0.757000000    -4.185000000     4.299000000
O    -5.869000000     6.046000000    -1.692000000
H    -6.474000000     6.043000000    -0.950000000
H    -5.140000000     5.495000000    -1.409000000
O    -2.632000000    -2.297000000     1.613000000
H    -1.937000000    -1.804000000     2.050000000
H    -2.319000000    -3.201000000     1.609000000
O    -1.985000000    -4.832000000     1.478000000
H    -2.587000000    -5.525000000     1.204000000
H    -1.314000000    -4.815000000     0.796000000
O     1.830000000    -7.520000000    -0.055000000
H     1.477000000    -6.877000000     0.560000000
H     2.774000000    -7.358000000    -0.056000000
O     5.363000000     4.488000000    -1.917000000
H     4.611000000     4.913000000    -1.503000000
H     5.610000000     3.793000000    -1.308000000
O    -1.179000000     8.521000000    -2.061000000
H    -0.993000000     8.558000000    -1.123000000
H    -1.290000000     7.589000000    -2.247000000
O     4.882000000    -4.225000000     2.986000000
H     5.619000000    -4.765000000     2.701000000
H     5.249000000    -3.657000000     3.663000000
O    -1.287000000     3.924000000     6.014000000
H    -2.117000000     4.337000000     5.775000000
H    -1.026000000     3.440000000     5.230000000
O     4.682000000     0.891000000    -2.838000000
H     4.900000000     0.392000000    -2.051000000
H     3.749000000     1.084000000    -2.749000000
