158
-3000.08000
C     0.208000000    -0.651000000    -1.297000000
H     0.262000000    -1.135000000    -2.269000000
C    -0.950000000     0.049000000    -0.939000000
H    -1.815000000     0.244000000    -1.567000000
C    -1.016000000     0.610000000     0.334000000
H    -1.948000000     1.113000000     0.667000000
C     0.110000000     0.537000000     1.143000000
H     0.174000000     1.106000000     2.067000000
C     1.272000000    -0.101000000     0.732000000
H     2.158000000    -0.142000000     1.360000000
C     1.328000000    -0.779000000    -0.476000000
C     2.533000000    -1.617000000    -0.866000000
O     2.428000000    -2.212000000    -1.935000000
O     3.561000000    -1.628000000    -0.261000000
O    -4.878000000     0.486000000     4.539000000
H    -5.523000000    -0.030000000     4.056000000
H    -4.822000000     1.312000000     4.058000000
O     5.609000000     0.140000000     0.314000000
H     6.050000000     0.205000000     1.161000000
H     4.883000000    -0.464000000     0.469000000
O     0.559000000    -0.738000000    -6.860000000
H     0.879000000    -0.718000000    -5.958000000
H    -0.254000000    -1.242000000    -6.814000000
O     2.788000000    -5.065000000    -5.890000000
H     1.955000000    -4.777000000    -5.517000000
H     3.435000000    -4.460000000    -5.528000000
O    -3.997000000     2.860000000     2.891000000
H    -3.364000000     2.821000000     3.607000000
H    -3.650000000     3.527000000     2.300000000
O     8.243000000    -2.016000000     0.523000000
H     7.679000000    -2.682000000     0.917000000
H     8.644000000    -1.570000000     1.269000000
O    -1.655000000    -1.627000000    -5.582000000
H    -1.603000000    -2.190000000    -4.809000000
H    -2.425000000    -1.080000000    -5.428000000
O    -4.745000000    -1.081000000     0.482000000
H    -3.840000000    -1.371000000     0.594000000
H    -5.265000000    -1.738000000     0.945000000
O     5.580000000    -2.131000000    -4.710000000
H     5.392000000    -1.400000000    -4.122000000
H     4.967000000    -2.816000000    -4.445000000
O     4.865000000    -0.558000000    -2.612000000
H     5.459000000     0.011000000    -2.123000000
H     4.432000000    -1.086000000    -1.941000000
O     4.427000000    -5.616000000    -1.671000000
H     3.824000000    -5.427000000    -0.953000000
H     5.192000000    -5.070000000    -1.492000000
O    -2.858000000     5.357000000     1.962000000
H    -3.708000000     5.788000000     2.056000000
H    -2.763000000     5.220000000     1.019000000
O     0.350000000    -4.100000000    -1.694000000
H     0.574000000    -4.710000000    -0.991000000
H     1.120000000    -3.538000000    -1.777000000
O     6.862000000    -4.241000000    -1.476000000
H     7.487000000    -4.891000000    -1.155000000
H     7.001000000    -3.478000000    -0.914000000
O     2.123000000     3.037000000     4.409000000
H     2.694000000     2.321000000     4.129000000
H     1.277000000     2.620000000     4.570000000
O    -5.850000000     2.016000000     0.546000000
H    -5.110000000     2.214000000     1.120000000
H    -5.821000000     1.066000000     0.436000000
O    -5.757000000    -2.720000000    -1.629000000
H    -5.720000000    -2.838000000    -0.679000000
H    -5.909000000    -3.599000000    -1.974000000
O    -3.028000000     2.915000000    -4.928000000
H    -2.364000000     3.035000000    -4.249000000
H    -3.728000000     2.426000000    -4.495000000
O    -1.683000000    -4.219000000     2.665000000
H    -1.936000000    -3.403000000     2.234000000
H    -1.403000000    -4.791000000     1.951000000
O     7.034000000     1.306000000    -2.165000000
H     7.691000000     0.789000000    -1.699000000
H     6.402000000     1.553000000    -1.490000000
O    -0.233000000     1.790000000     5.178000000
H    -1.052000000     2.277000000     5.090000000
H    -0.088000000     1.735000000     6.123000000
O    -3.400000000     5.470000000    -0.787000000
H    -2.614000000     5.864000000    -1.165000000
H    -3.915000000     5.189000000    -1.544000000
O    -1.833000000     3.239000000    -2.320000000
H    -1.002000000     3.082000000    -1.872000000
H    -2.435000000     3.499000000    -1.623000000
O     0.839000000     4.159000000    -3.150000000
H     0.093000000     4.497000000    -3.645000000
H     0.468000000     3.896000000    -2.307000000
O     0.371000000     3.175000000    -0.628000000
H     0.599000000     3.871000000    -0.011000000
H     0.816000000     2.399000000    -0.288000000
O    -1.812000000    -1.952000000     1.480000000
H    -1.927000000    -1.482000000     2.306000000
H    -0.981000000    -1.628000000     1.134000000
O     5.745000000    -6.163000000     1.582000000
H     5.976000000    -6.239000000     2.508000000
H     5.525000000    -5.238000000     1.465000000
O     2.744000000    -1.954000000     3.185000000
H     2.425000000    -2.324000000     2.362000000
H     3.310000000    -2.634000000     3.550000000
O     2.073000000     1.861000000    -3.027000000
H     1.559000000     2.665000000    -3.105000000
H     2.516000000     1.941000000    -2.183000000
O    -4.013000000    -1.375000000    -3.316000000
H    -3.157000000    -1.357000000    -2.888000000
H    -4.610000000    -1.702000000    -2.644000000
O     3.769000000    -3.858000000    -3.509000000
H     3.388000000    -3.125000000    -3.026000000
H     3.884000000    -4.544000000    -2.851000000
O    -8.407000000     1.589000000    -0.484000000
H    -7.524000000     1.804000000    -0.182000000
H    -8.792000000     2.433000000    -0.720000000
O     1.196000000     4.482000000     1.859000000
H     2.134000000     4.658000000     1.935000000
H     0.987000000     3.959000000     2.633000000
O     4.637000000     1.458000000    -4.466000000
H     3.741000000     1.654000000    -4.190000000
H     4.978000000     0.884000000    -3.780000000
O     6.327000000     0.195000000     2.872000000
H     6.568000000    -0.479000000     3.507000000
H     6.979000000     0.885000000     2.996000000
O     0.430000000    -4.811000000    -4.467000000
H    -0.493000000    -5.065000000    -4.466000000
H     0.561000000    -4.378000000    -3.624000000
O     1.864000000    -4.627000000     1.565000000
H     1.890000000    -5.238000000     2.301000000
H     1.190000000    -4.980000000     0.984000000
O     6.788000000    -3.383000000     2.331000000
H     6.704000000    -3.587000000     3.262000000
H     5.886000000    -3.289000000     2.024000000
O     3.626000000     0.918000000     3.520000000
H     3.391000000    -0.001000000     3.390000000
H     4.541000000     0.972000000     3.246000000
O    -1.624000000    -0.423000000     3.888000000
H    -1.093000000     0.277000000     4.268000000
H    -2.481000000    -0.023000000     3.745000000
O     1.704000000    -0.595000000    -4.287000000
H     2.098000000    -1.183000000    -3.643000000
H     1.698000000     0.261000000    -3.858000000
O    -2.761000000     3.021000000     5.365000000
H    -2.556000000     3.951000000     5.464000000
H    -3.397000000     2.841000000     6.058000000
O    -6.967000000     4.951000000     0.301000000
H    -6.420000000     4.266000000    -0.084000000
H    -6.403000000     5.369000000     0.953000000
O    -1.625000000    -2.996000000    -3.138000000
H    -0.912000000    -3.306000000    -2.579000000
H    -2.270000000    -3.703000000    -3.119000000
O     1.900000000    -1.140000000     6.023000000
H     2.354000000    -1.643000000     5.346000000
H     1.140000000    -0.770000000     5.575000000
O     4.194000000    -3.911000000     0.960000000
H     3.285000000    -4.171000000     1.111000000
H     4.131000000    -3.053000000     0.539000000
O    -1.219000000    -2.637000000     5.600000000
H    -1.756000000    -3.263000000     5.116000000
H    -1.220000000    -1.849000000     5.057000000
O     4.326000000     2.892000000    -0.555000000
H     4.529000000     2.019000000    -0.219000000
H     5.180000000     3.303000000    -0.687000000
