158
-3032.30633
C    -0.105000000     0.413000000    -1.462000000
H    -0.260000000     0.697000000    -2.500000000
C    -0.841000000     0.958000000    -0.425000000
H    -1.576000000     1.701000000    -0.722000000
C    -0.585000000     0.591000000     0.869000000
H    -1.180000000     1.060000000     1.696000000
C     0.331000000    -0.344000000     1.111000000
H     0.616000000    -0.619000000     2.124000000
C     1.084000000    -0.986000000     0.123000000
H     1.694000000    -1.824000000     0.450000000
C     0.803000000    -0.618000000    -1.204000000
C     1.451000000    -1.468000000    -2.247000000
O     0.962000000    -1.507000000    -3.352000000
O     2.324000000    -2.236000000    -1.962000000
O    -2.536000000    -3.248000000    -3.158000000
H    -2.305000000    -3.916000000    -2.513000000
H    -2.951000000    -2.554000000    -2.645000000
O    -3.480000000     0.741000000    -3.206000000
H    -3.783000000     1.279000000    -2.475000000
H    -3.929000000     1.101000000    -3.971000000
O     1.248000000    -4.522000000    -0.432000000
H     0.366000000    -4.451000000    -0.067000000
H     1.388000000    -3.691000000    -0.885000000
O     0.166000000    -3.092000000    -6.915000000
H     1.092000000    -2.912000000    -6.752000000
H    -0.301000000    -2.469000000    -6.360000000
O    -0.841000000    -4.607000000    -4.823000000
H    -0.767000000    -4.074000000    -5.615000000
H    -1.576000000    -4.224000000    -4.345000000
O     5.757000000     1.023000000    -0.975000000
H     5.180000000     0.298000000    -1.217000000
H     5.590000000     1.694000000    -1.637000000
O    -3.322000000    -1.247000000    -1.208000000
H    -3.435000000    -0.742000000    -2.013000000
H    -3.094000000    -0.595000000    -0.545000000
O     4.040000000    -0.478000000    -4.724000000
H     3.276000000    -0.540000000    -5.297000000
H     3.872000000    -1.117000000    -4.031000000
O     3.964000000    -5.158000000     1.094000000
H     4.118000000    -6.066000000     1.357000000
H     3.451000000    -5.227000000     0.288000000
O     2.004000000     3.052000000     1.984000000
H     2.205000000     2.233000000     2.437000000
H     2.803000000     3.574000000     2.067000000
O     0.515000000    -2.544000000     4.892000000
H    -0.183000000    -2.272000000     4.297000000
H     1.160000000    -2.970000000     4.327000000
O    -3.832000000     3.455000000    -2.504000000
H    -4.770000000     3.380000000    -2.680000000
H    -3.642000000     4.387000000    -2.610000000
O    -0.878000000     5.519000000     4.449000000
H    -0.473000000     5.324000000     3.604000000
H    -1.652000000     4.956000000     4.479000000
O     1.735000000    -7.177000000    -0.208000000
H     0.883000000    -7.612000000    -0.154000000
H     1.528000000    -6.243000000    -0.199000000
O    -5.994000000     0.315000000     1.426000000
H    -6.782000000    -0.210000000     1.569000000
H    -5.942000000     0.414000000     0.475000000
O     5.082000000    -2.738000000     0.660000000
H     6.003000000    -2.840000000     0.900000000
H     4.680000000    -3.575000000     0.892000000
O    -1.151000000     0.821000000    -7.237000000
H    -1.048000000     0.243000000    -6.481000000
H    -1.798000000     0.381000000    -7.788000000
O     3.339000000    -1.179000000     2.459000000
H     3.871000000    -1.326000000     1.677000000
H     3.442000000    -0.246000000     2.647000000
O     3.528000000     1.240000000     3.431000000
H     4.428000000     1.227000000     3.105000000
H     3.618000000     1.356000000     4.376000000
O    -6.255000000     2.703000000     2.868000000
H    -5.887000000     2.079000000     2.242000000
H    -6.804000000     3.280000000     2.336000000
O    -4.894000000     4.916000000     3.764000000
H    -5.058000000     4.068000000     3.351000000
H    -4.301000000     4.719000000     4.489000000
O    -1.845000000    -1.955000000     3.697000000
H    -2.527000000    -2.612000000     3.835000000
H    -2.276000000    -1.265000000     3.192000000
O     0.968000000     1.427000000    -4.926000000
H     0.731000000     0.546000000    -4.636000000
H     0.219000000     1.970000000    -4.681000000
O    -3.308000000     0.035000000     2.339000000
H    -2.926000000     0.637000000     1.701000000
H    -4.251000000     0.084000000     2.180000000
O     2.188000000    -3.378000000     2.853000000
H     2.264000000    -3.747000000     1.974000000
H     2.731000000    -2.590000000     2.830000000
O     2.314000000     2.142000000    -1.294000000
H     2.159000000     1.686000000    -0.467000000
H     1.506000000     2.632000000    -1.453000000
O     1.994000000    -4.154000000    -4.158000000
H     1.115000000    -4.316000000    -4.500000000
H     1.887000000    -3.409000000    -3.566000000
O    -0.480000000     4.637000000    -5.769000000
H    -0.917000000     3.886000000    -5.367000000
H     0.347000000     4.717000000    -5.293000000
O     4.098000000    -4.520000000    -2.416000000
H     3.198000000    -4.435000000    -2.730000000
H     4.179000000    -3.851000000    -1.737000000
O    -0.596000000     1.649000000     7.463000000
H    -0.696000000     1.634000000     6.511000000
H     0.291000000     1.979000000     7.606000000
O     0.324000000     4.182000000    -1.703000000
H     0.070000000     4.954000000    -1.198000000
H     0.724000000     4.536000000    -2.497000000
O     0.329000000     0.406000000     4.856000000
H     0.445000000    -0.533000000     5.000000000
H     1.181000000     0.788000000     5.070000000
O     4.749000000    -1.460000000    -1.733000000
H     5.204000000    -1.837000000    -0.981000000
H     3.823000000    -1.639000000    -1.568000000
O     2.154000000    -0.791000000     6.585000000
H     1.423000000    -1.359000000     6.342000000
H     2.929000000    -1.346000000     6.495000000
O    -1.108000000     2.831000000    -3.772000000
H    -1.887000000     2.443000000    -3.373000000
H    -0.734000000     3.379000000    -3.082000000
O     3.325000000    -3.047000000    -7.198000000
H     3.744000000    -3.179000000    -6.348000000
H     3.042000000    -2.133000000    -7.187000000
O     7.264000000    -1.344000000    -3.616000000
H     6.490000000    -1.005000000    -3.166000000
H     7.628000000    -0.585000000    -4.072000000
O    -1.123000000    -4.574000000     1.009000000
H    -1.579000000    -3.754000000     0.817000000
H    -1.748000000    -5.079000000     1.531000000
O     0.361000000     5.205000000     2.146000000
H     0.763000000     5.850000000     1.565000000
H     0.865000000     4.405000000     2.002000000
O    -0.970000000    -1.349000000    -5.106000000
H    -0.331000000    -1.564000000    -4.427000000
H    -1.805000000    -1.299000000    -4.641000000
O    -2.115000000     1.258000000     4.301000000
H    -2.448000000     0.609000000     3.680000000
H    -1.231000000     0.957000000     4.509000000
O     2.230000000    -0.397000000    -7.066000000
H     2.670000000    -0.232000000    -7.899000000
H     1.432000000     0.129000000    -7.108000000
O    -4.074000000     2.214000000    -0.123000000
H    -3.498000000     2.682000000     0.481000000
H    -4.330000000     2.873000000    -0.769000000
O    -2.498000000     4.109000000     1.306000000
H    -2.872000000     4.504000000     0.518000000
H    -1.658000000     4.553000000     1.420000000
O     3.346000000    -6.020000000    -5.480000000
H     2.673000000    -6.360000000    -6.068000000
H     2.899000000    -5.343000000    -4.970000000
O    -2.977000000     3.579000000     5.396000000
H    -2.727000000     2.771000000     4.948000000
H    -3.717000000     3.328000000     5.949000000
O     4.384000000     1.781000000    -3.212000000
H     4.359000000     1.004000000    -3.772000000
H     3.584000000     1.725000000    -2.689000000
O     4.820000000    -3.151000000    -4.957000000
H     5.668000000    -2.759000000    -4.748000000
H     4.622000000    -3.709000000    -4.205000000
