158
-3027.14696
C    -0.653000000    -0.286000000    -1.321000000
H    -1.257000000    -0.526000000    -2.192000000
C    -1.272000000     0.267000000    -0.188000000
H    -2.296000000     0.627000000    -0.242000000
C    -0.558000000     0.454000000     0.998000000
H    -0.962000000     1.033000000     1.810000000
C     0.776000000     0.038000000     1.084000000
H     1.339000000     0.278000000     1.982000000
C     1.377000000    -0.524000000    -0.023000000
H     2.447000000    -0.714000000    -0.005000000
C     0.679000000    -0.701000000    -1.273000000
C     1.347000000    -1.295000000    -2.445000000
O     0.928000000    -1.115000000    -3.536000000
O     2.418000000    -1.858000000    -2.250000000
O    -3.319000000    -3.183000000    -3.067000000
H    -3.149000000    -3.704000000    -2.282000000
H    -3.960000000    -2.529000000    -2.786000000
O    -3.284000000     1.581000000    -3.085000000
H    -3.631000000     2.472000000    -3.134000000
H    -2.427000000     1.634000000    -3.507000000
O     2.409000000    -3.777000000    -0.569000000
H     1.585000000    -3.701000000    -0.087000000
H     2.393000000    -3.047000000    -1.188000000
O     4.733000000     1.166000000    -0.681000000
H     4.700000000     0.265000000    -1.002000000
H     3.992000000     1.599000000    -1.106000000
O    -4.531000000    -0.719000000    -2.328000000
H    -4.017000000     0.005000000    -2.685000000
H    -4.953000000    -0.352000000    -1.551000000
O    -2.039000000    -4.826000000    -5.073000000
H    -2.002000000    -4.502000000    -4.173000000
H    -2.765000000    -5.450000000    -5.073000000
O     3.747000000     0.188000000    -3.270000000
H     3.207000000     0.805000000    -3.765000000
H     3.122000000    -0.446000000    -2.917000000
O     5.085000000    -4.142000000    -0.010000000
H     5.301000000    -5.062000000     0.146000000
H     4.147000000    -4.145000000    -0.197000000
O    -1.860000000    -5.055000000    -0.929000000
H    -1.212000000    -5.155000000    -1.625000000
H    -1.502000000    -4.370000000    -0.365000000
O     4.152000000    -5.107000000     2.944000000
H     5.037000000    -5.451000000     2.821000000
H     4.217000000    -4.184000000     2.700000000
O    -3.060000000    -0.469000000     7.232000000
H    -2.556000000     0.242000000     6.835000000
H    -3.758000000    -0.648000000     6.601000000
O     3.327000000     3.083000000     2.003000000
H     3.720000000     2.229000000     1.821000000
H     3.533000000     3.250000000     2.923000000
O     0.776000000    -1.226000000     5.954000000
H     0.758000000    -0.300000000     5.714000000
H     1.250000000    -1.650000000     5.238000000
O     2.884000000     4.074000000     4.870000000
H     2.026000000     4.046000000     4.445000000
H     2.696000000     3.933000000     5.798000000
O    -4.470000000    -1.264000000     5.044000000
H    -4.871000000    -2.131000000     4.986000000
H    -3.868000000    -1.228000000     4.301000000
O    -5.761000000    -1.045000000     0.648000000
H    -6.167000000    -0.500000000     1.322000000
H    -6.210000000    -0.799000000    -0.161000000
O     0.045000000     0.342000000    -6.357000000
H    -0.429000000    -0.191000000    -5.718000000
H     0.954000000     0.049000000    -6.286000000
O     4.865000000    -2.505000000     2.413000000
H     5.681000000    -2.364000000     2.893000000
H     5.137000000    -2.591000000     1.499000000
O     3.403000000     0.956000000     4.198000000
H     3.819000000     0.811000000     3.348000000
H     3.999000000     1.546000000     4.659000000
O    -5.058000000     2.733000000    -0.382000000
H    -5.811000000     2.936000000    -0.937000000
H    -4.479000000     3.490000000    -0.478000000
O    -4.303000000     4.907000000     2.578000000
H    -4.585000000     4.047000000     2.267000000
H    -4.273000000     4.819000000     3.531000000
O    -2.654000000    -0.986000000     2.789000000
H    -1.883000000    -1.509000000     3.011000000
H    -3.211000000    -1.582000000     2.288000000
O     1.505000000     1.334000000    -4.118000000
H     1.386000000     0.385000000    -4.081000000
H     0.660000000     1.670000000    -4.418000000
O    -3.813000000    -2.974000000     0.989000000
H    -4.474000000    -2.293000000     0.866000000
H    -4.151000000    -3.726000000     0.501000000
O     3.019000000    -1.726000000     4.309000000
H     2.946000000    -0.773000000     4.261000000
H     3.700000000    -1.946000000     3.673000000
O     0.165000000     3.127000000    -0.727000000
H    -0.247000000     2.549000000    -0.085000000
H    -0.290000000     2.938000000    -1.547000000
O     2.684000000    -3.497000000    -4.878000000
H     2.101000000    -4.221000000    -4.651000000
H     2.440000000    -2.795000000    -4.275000000
O     5.486000000    -3.346000000    -5.153000000
H     4.618000000    -3.321000000    -4.749000000
H     5.983000000    -2.670000000    -4.692000000
O     4.993000000     0.735000000     1.933000000
H     5.124000000     0.959000000     1.011000000
H     5.811000000     0.990000000     2.360000000
O    -1.649000000     1.880000000     6.333000000
H    -2.003000000     2.068000000     5.463000000
H    -1.963000000     2.600000000     6.880000000
O     1.038000000     4.188000000     3.140000000
H     1.305000000     4.712000000     2.385000000
H     1.309000000     3.296000000     2.920000000
O     4.985000000    -1.613000000    -1.069000000
H     5.223000000    -2.421000000    -0.616000000
H     4.261000000    -1.864000000    -1.643000000
O     0.579000000    -5.128000000    -2.393000000
H     1.101000000    -5.570000000    -3.062000000
H     1.207000000    -4.915000000    -1.702000000
O    -0.850000000     3.303000000    -3.747000000
H    -0.309000000     4.087000000    -3.659000000
H    -1.591000000     3.582000000    -4.286000000
O     3.496000000    -3.725000000    -7.359000000
H     3.378000000    -3.750000000    -6.409000000
H     3.676000000    -2.805000000    -7.553000000
O    -1.431000000     7.024000000     0.768000000
H    -2.219000000     7.487000000     1.050000000
H    -1.208000000     6.458000000     1.508000000
O     7.172000000    -1.797000000    -3.648000000
H     6.916000000    -1.177000000    -2.966000000
H     7.787000000    -1.309000000    -4.196000000
O     0.201000000     6.086000000     5.741000000
H     0.502000000     5.407000000     6.345000000
H     0.069000000     5.627000000     4.912000000
O    -0.128000000    -3.105000000     0.679000000
H    -0.495000000    -3.350000000     1.528000000
H    -0.051000000    -2.152000000     0.717000000
O     1.296000000     5.599000000     0.326000000
H     0.600000000     5.215000000    -0.207000000
H     2.106000000     5.320000000    -0.099000000
O    -1.370000000    -1.436000000    -4.710000000
H    -0.518000000    -1.682000000    -4.349000000
H    -2.005000000    -1.869000000    -4.140000000
O    -3.072000000     1.445000000     3.875000000
H    -3.820000000     1.831000000     3.420000000
H    -2.767000000     0.752000000     3.290000000
O    -1.051000000    -3.330000000     3.407000000
H    -1.633000000    -4.058000000     3.627000000
H    -0.397000000    -3.327000000     4.105000000
O    -5.204000000     2.217000000     2.170000000
H    -5.909000000     1.585000000     2.310000000
H    -5.141000000     2.299000000     1.219000000
O    -1.394000000     5.625000000     3.119000000
H    -2.274000000     5.367000000     2.845000000
H    -0.922000000     4.798000000     3.217000000
O     5.759000000     1.746000000    -4.008000000
H     5.103000000     1.291000000    -3.479000000
H     6.267000000     2.254000000    -3.374000000
O     2.628000000     2.682000000    -1.911000000
H     1.775000000     2.844000000    -1.508000000
H     2.431000000     2.531000000    -2.835000000
O    -5.851000000    -1.613000000    -4.675000000
H    -5.628000000    -1.198000000    -3.842000000
H    -5.012000000    -1.718000000    -5.123000000
