158
-3046.54129
C    -0.383000000    -0.770000000    -1.117000000
H    -0.847000000    -1.363000000    -1.901000000
C    -1.143000000     0.136000000    -0.433000000
H    -2.149000000     0.311000000    -0.807000000
C    -0.613000000     0.885000000     0.570000000
H    -1.127000000     1.634000000     1.077000000
C     0.686000000     0.693000000     0.924000000
H     1.102000000     1.311000000     1.715000000
C     1.413000000    -0.307000000     0.347000000
H     2.374000000    -0.525000000     0.805000000
C     0.862000000    -1.138000000    -0.624000000
C     1.566000000    -2.246000000    -1.392000000
O     0.952000000    -3.041000000    -2.143000000
O     2.716000000    -2.570000000    -1.090000000
O    -2.284000000    -2.203000000    -4.937000000
H    -2.733000000    -2.009000000    -4.114000000
H    -2.928000000    -2.691000000    -5.452000000
O    -4.643000000     0.967000000     0.225000000
H    -4.147000000     1.774000000     0.367000000
H    -4.763000000     0.925000000    -0.724000000
O     2.734000000    -5.228000000    -0.216000000
H     1.800000000    -5.212000000    -0.426000000
H     3.076000000    -4.414000000    -0.587000000
O    -3.879000000     5.724000000     1.988000000
H    -3.680000000     5.087000000     1.302000000
H    -4.738000000     5.461000000     2.318000000
O     4.459000000     0.772000000    -0.995000000
H     4.785000000    -0.061000000    -0.654000000
H     3.508000000     0.710000000    -0.909000000
O    -3.682000000    -1.502000000    -2.755000000
H    -3.825000000    -0.557000000    -2.698000000
H    -3.601000000    -1.787000000    -1.845000000
O     5.658000000     3.130000000    -0.585000000
H     5.031000000     2.417000000    -0.706000000
H     5.828000000     3.452000000    -1.470000000
O     4.453000000    -2.985000000    -3.168000000
H     3.743000000    -2.981000000    -2.526000000
H     4.951000000    -2.190000000    -2.980000000
O     4.574000000    -5.361000000     1.730000000
H     3.859000000    -5.161000000     1.126000000
H     5.167000000    -5.916000000     1.223000000
O    -2.554000000    -3.095000000    -0.458000000
H    -1.955000000    -3.631000000    -0.978000000
H    -2.810000000    -3.661000000     0.271000000
O    -3.268000000    -2.768000000     4.326000000
H    -3.572000000    -2.162000000     3.651000000
H    -4.055000000    -3.238000000     4.599000000
O     1.877000000     3.699000000    -0.288000000
H     2.710000000     3.441000000     0.107000000
H     1.270000000     3.754000000     0.450000000
O     1.285000000    -3.597000000     2.387000000
H     0.448000000    -3.175000000     2.195000000
H     1.843000000    -2.889000000     2.707000000
O     0.044000000     4.620000000     1.977000000
H    -0.157000000     3.906000000     2.582000000
H    -0.372000000     5.389000000     2.368000000
O     3.156000000     3.415000000     2.312000000
H     3.929000000     3.944000000     2.506000000
H     2.450000000     3.831000000     2.806000000
O    -1.219000000    -7.281000000    -0.146000000
H    -0.924000000    -6.532000000    -0.665000000
H    -1.751000000    -6.895000000     0.550000000
O    -5.590000000    -1.228000000    -4.363000000
H    -4.911000000    -1.422000000    -3.718000000
H    -5.361000000    -1.765000000    -5.122000000
O     5.393000000    -3.067000000     2.772000000
H     5.786000000    -3.140000000     3.642000000
H     5.533000000    -3.925000000     2.373000000
O     3.071000000    -1.717000000     3.398000000
H     3.758000000    -2.334000000     3.145000000
H     3.482000000    -0.856000000     3.320000000
O    -4.416000000     5.260000000    -1.629000000
H    -4.211000000     6.155000000    -1.358000000
H    -4.101000000     5.205000000    -2.531000000
O     4.012000000     0.718000000     2.598000000
H     4.801000000     0.754000000     3.139000000
H     3.717000000     1.627000000     2.544000000
O    -4.683000000     5.225000000     4.505000000
H    -4.128000000     4.960000000     3.771000000
H    -5.308000000     4.507000000     4.604000000
O    -0.635000000     2.222000000     3.843000000
H    -0.300000000     1.347000000     3.645000000
H    -1.571000000     2.091000000     3.995000000
O    -4.100000000    -0.913000000     2.345000000
H    -4.177000000    -0.667000000     1.423000000
H    -4.837000000    -0.476000000     2.772000000
O     1.410000000    -7.005000000    -5.625000000
H     0.520000000    -7.296000000    -5.428000000
H     1.478000000    -6.144000000    -5.213000000
O    -4.307000000    -4.486000000    -3.402000000
H    -3.363000000    -4.405000000    -3.536000000
H    -4.547000000    -5.290000000    -3.864000000
O     0.184000000     0.648000000    -6.292000000
H     0.317000000     0.120000000    -5.505000000
H    -0.581000000     0.258000000    -6.715000000
O     1.649000000     2.561000000    -2.941000000
H     1.178000000     2.043000000    -2.289000000
H     2.014000000     3.295000000    -2.446000000
O    -0.508000000    -5.228000000    -2.079000000
H    -0.790000000    -5.404000000    -2.976000000
H     0.214000000    -4.607000000    -2.172000000
O     6.537000000    -4.858000000    -3.661000000
H     5.894000000    -4.217000000    -3.358000000
H     6.210000000    -5.140000000    -4.515000000
O     1.415000000     2.900000000     5.428000000
H     0.706000000     2.736000000     4.805000000
H     0.983000000     2.922000000     6.282000000
O     5.233000000    -1.794000000    -0.045000000
H     5.183000000    -1.462000000     0.852000000
H     4.401000000    -2.249000000    -0.178000000
O    -1.461000000    -5.496000000    -4.767000000
H    -1.475000000    -5.170000000    -5.668000000
H    -1.362000000    -6.444000000    -4.857000000
O     0.512000000    -1.078000000     3.997000000
H    -0.055000000    -1.441000000     3.316000000
H     1.387000000    -1.397000000     3.775000000
O     5.526000000    -0.171000000    -3.380000000
H     5.147000000     0.421000000    -2.730000000
H     5.592000000     0.358000000    -4.175000000
O    -1.022000000    -2.126000000     1.989000000
H    -1.158000000    -1.921000000     1.064000000
H    -1.904000000    -2.253000000     2.339000000
O    -0.115000000     6.559000000    -1.074000000
H     0.428000000     6.913000000    -1.779000000
H     0.419000000     6.663000000    -0.286000000
O    -0.685000000     3.976000000    -1.442000000
H    -0.575000000     4.913000000    -1.600000000
H     0.192000000     3.666000000    -1.215000000
O     0.421000000    -1.575000000    -4.297000000
H     0.590000000    -2.172000000    -3.568000000
H    -0.532000000    -1.560000000    -4.378000000
O    -3.297000000     1.603000000     3.915000000
H    -3.906000000     2.222000000     3.513000000
H    -3.677000000     0.742000000     3.736000000
O     3.358000000    -2.721000000    -5.820000000
H     2.583000000    -3.279000000    -5.763000000
H     3.611000000    -2.568000000    -4.910000000
O    -5.321000000     3.116000000     2.586000000
H    -5.834000000     2.324000000     2.421000000
H    -5.849000000     3.824000000     2.217000000
O    -6.058000000     0.579000000     3.834000000
H    -5.788000000     0.575000000     4.753000000
H    -7.006000000     0.450000000     3.862000000
O    -3.081000000     3.731000000     0.111000000
H    -3.387000000     4.312000000    -0.585000000
H    -2.139000000     3.651000000    -0.041000000
O     1.119000000    -4.603000000    -4.629000000
H     0.266000000    -4.179000000    -4.718000000
H     1.505000000    -4.204000000    -3.849000000
O    -0.704000000     0.061000000     6.179000000
H    -0.054000000     0.764000000     6.166000000
H    -0.470000000    -0.494000000     5.435000000
O    -4.671000000     1.169000000    -2.523000000
H    -5.335000000     1.084000000    -3.208000000
H    -4.002000000     1.735000000    -2.908000000
O    -2.662000000     2.938000000    -3.100000000
H    -2.781000000     3.818000000    -3.457000000
H    -2.075000000     3.060000000    -2.354000000
