158
-3045.06178
C    -1.158000000    -0.738000000    -0.630000000
H    -2.081000000    -1.260000000    -0.871000000
C    -1.230000000     0.295000000     0.316000000
H    -2.194000000     0.623000000     0.698000000
C    -0.084000000     0.919000000     0.791000000
H    -0.191000000     1.699000000     1.439000000
C     1.168000000     0.439000000     0.469000000
H     2.080000000     0.936000000     0.789000000
C     1.231000000    -0.661000000    -0.396000000
H     2.218000000    -0.937000000    -0.757000000
C     0.075000000    -1.205000000    -0.973000000
C     0.204000000    -2.208000000    -2.093000000
O    -0.674000000    -3.022000000    -2.368000000
O     1.276000000    -2.261000000    -2.664000000
O    -3.691000000    -2.551000000    -5.234000000
H    -4.106000000    -2.071000000    -5.951000000
H    -4.407000000    -2.742000000    -4.628000000
O    -6.871000000     1.673000000     0.355000000
H    -7.139000000     2.557000000     0.105000000
H    -6.059000000     1.522000000    -0.130000000
O     3.203000000    -3.464000000    -1.041000000
H     3.986000000    -3.674000000    -1.550000000
H     2.539000000    -3.255000000    -1.699000000
O    -2.116000000     5.710000000     2.790000000
H    -1.258000000     5.349000000     2.571000000
H    -2.706000000     4.956000000     2.771000000
O     4.757000000     1.098000000     1.508000000
H     4.717000000     0.200000000     1.179000000
H     5.668000000     1.214000000     1.778000000
O    -6.924000000    -1.016000000    -0.542000000
H    -6.068000000    -0.608000000    -0.670000000
H    -7.184000000    -0.755000000     0.342000000
O     3.141000000     4.724000000     1.890000000
H     3.225000000     5.187000000     1.056000000
H     3.533000000     5.314000000     2.533000000
O     4.003000000     2.459000000    -0.777000000
H     4.199000000     1.840000000    -0.073000000
H     3.224000000     2.926000000    -0.476000000
O     4.038000000    -1.624000000    -3.539000000
H     3.148000000    -1.950000000    -3.400000000
H     3.967000000    -0.677000000    -3.420000000
O     2.759000000    -6.103000000     0.057000000
H     2.798000000    -5.277000000    -0.425000000
H     3.612000000    -6.172000000     0.484000000
O    -3.931000000    -3.421000000     1.187000000
H    -4.124000000    -2.492000000     1.318000000
H    -4.658000000    -3.743000000     0.655000000
O     1.845000000     4.185000000    -0.758000000
H     1.724000000     3.412000000    -1.310000000
H     1.106000000     4.752000000    -0.974000000
O    -2.969000000    -6.573000000    -4.260000000
H    -2.521000000    -7.214000000    -4.812000000
H    -2.479000000    -5.761000000    -4.390000000
O     0.579000000    -1.906000000     2.573000000
H     1.492000000    -1.857000000     2.855000000
H     0.569000000    -1.475000000     1.719000000
O    -1.584000000     5.328000000     5.456000000
H    -2.135000000     4.622000000     5.794000000
H    -1.965000000     5.541000000     4.604000000
O     0.439000000     5.515000000     1.488000000
H     1.000000000     4.746000000     1.388000000
H     0.845000000     6.018000000     2.194000000
O     2.599000000     2.339000000     2.904000000
H     3.474000000     1.957000000     2.837000000
H     2.693000000     3.219000000     2.540000000
O     7.046000000    -0.751000000    -0.415000000
H     6.122000000    -0.927000000    -0.238000000
H     7.508000000    -1.106000000     0.344000000
O     3.167000000    -1.878000000     3.590000000
H     3.669000000    -2.650000000     3.850000000
H     3.586000000    -1.153000000     4.055000000
O     2.843000000     0.158000000     5.872000000
H     1.899000000     0.077000000     6.008000000
H     3.107000000     0.872000000     6.453000000
O    -3.593000000     1.382000000    -3.799000000
H    -2.902000000     0.722000000    -3.735000000
H    -3.154000000     2.209000000    -3.598000000
O    -1.341000000     2.800000000     4.130000000
H    -1.201000000     1.854000000     4.174000000
H    -2.098000000     2.904000000     3.553000000
O    -1.857000000    -0.946000000    -4.134000000
H    -1.372000000    -1.546000000    -3.568000000
H    -2.513000000    -1.497000000    -4.561000000
O     3.306000000    -6.292000000    -3.909000000
H     2.720000000    -5.547000000    -4.045000000
H     2.774000000    -6.932000000    -3.437000000
O     0.235000000    -0.394000000     6.941000000
H    -0.423000000    -0.475000000     6.251000000
H     0.381000000    -1.292000000     7.240000000
O    -0.322000000    -6.851000000    -0.823000000
H     0.201000000    -6.287000000    -0.252000000
H    -1.129000000    -6.357000000    -0.972000000
O     0.439000000     1.806000000    -2.210000000
H     0.076000000     1.338000000    -1.458000000
H     0.985000000     1.157000000    -2.655000000
O    -5.674000000    -2.982000000    -2.965000000
H    -5.662000000    -3.746000000    -2.388000000
H    -6.465000000    -2.505000000    -2.715000000
O    -2.022000000    -4.663000000    -0.709000000
H    -2.371000000    -4.063000000    -0.051000000
H    -1.393000000    -4.138000000    -1.203000000
O     6.581000000    -2.688000000    -3.975000000
H     5.736000000    -2.267000000    -3.816000000
H     7.147000000    -1.980000000    -4.282000000
O    -0.875000000     2.171000000     7.598000000
H    -0.195000000     2.687000000     7.165000000
H    -0.657000000     1.263000000     7.388000000
O     1.011000000     2.732000000     5.438000000
H     1.552000000     2.852000000     4.658000000
H     0.111000000     2.762000000     5.112000000
O     4.448000000    -1.612000000     0.514000000
H     4.438000000    -2.108000000     1.333000000
H     3.827000000    -2.070000000    -0.052000000
O    -3.333000000    -6.769000000    -1.508000000
H    -3.115000000    -6.843000000    -2.437000000
H    -2.950000000    -5.935000000    -1.238000000
O     1.209000000     5.880000000     5.224000000
H     1.775000000     5.308000000     5.742000000
H     0.373000000     5.415000000     5.183000000
O    -0.576000000     0.018000000     4.267000000
H    -1.396000000    -0.323000000     3.909000000
H     0.102000000    -0.542000000     3.888000000
O     3.146000000     1.151000000    -3.143000000
H     3.469000000     1.777000000    -2.496000000
H     3.280000000     1.586000000    -3.985000000
O    -4.996000000    -0.986000000     2.382000000
H    -5.560000000    -1.601000000     2.851000000
H    -5.239000000    -0.127000000     2.729000000
O    -1.672000000     4.891000000    -0.962000000
H    -1.812000000     5.796000000    -1.243000000
H    -0.876000000     4.926000000    -0.432000000
O    -1.306000000    -4.380000000    -4.463000000
H    -1.052000000    -3.859000000    -3.701000000
H    -1.766000000    -3.764000000    -5.032000000
O    -3.704000000     3.389000000     2.600000000
H    -4.523000000     3.670000000     3.009000000
H    -3.859000000     3.487000000     1.661000000
O     3.731000000    -3.879000000    -6.429000000
H     3.184000000    -4.528000000    -6.872000000
H     3.243000000    -3.656000000    -5.636000000
O    -3.773000000     3.221000000    -0.854000000
H    -4.460000000     3.733000000    -1.281000000
H    -2.985000000     3.756000000    -0.945000000
O     1.744000000    -4.172000000    -4.469000000
H     1.021000000    -4.788000000    -4.351000000
H     1.503000000    -3.415000000    -3.936000000
O    -3.485000000     1.114000000     5.774000000
H    -4.120000000     1.823000000     5.880000000
H    -2.676000000     1.553000000     5.511000000
O    -0.689000000     0.563000000    -5.882000000
H    -1.265000000     0.028000000    -5.335000000
H    -0.255000000     1.153000000    -5.267000000
O    -4.983000000     0.906000000    -1.363000000
H    -4.563000000     0.576000000    -2.157000000
H    -4.528000000     1.727000000    -1.174000000
O    -2.148000000     3.610000000    -3.543000000
H    -2.209000000     4.430000000    -4.033000000
H    -1.882000000     3.876000000    -2.662000000
