158
-3030.18557
C    -0.888000000    -0.491000000    -1.029000000
H    -1.623000000    -0.930000000    -1.699000000
C    -1.072000000    -0.698000000     0.320000000
H    -1.872000000    -1.334000000     0.691000000
C    -0.085000000    -0.175000000     1.207000000
H    -0.121000000    -0.445000000     2.280000000
C     0.983000000     0.556000000     0.671000000
H     1.744000000     0.939000000     1.347000000
C     0.977000000     0.854000000    -0.713000000
H     1.857000000     1.374000000    -1.083000000
C     0.018000000     0.391000000    -1.580000000
C     0.067000000     0.729000000    -3.026000000
O     1.136000000     1.178000000    -3.438000000
O    -0.880000000     0.459000000    -3.691000000
O     5.088000000     3.525000000    -0.019000000
H     5.295000000     2.766000000     0.525000000
H     5.348000000     3.264000000    -0.903000000
O     3.266000000     2.581000000    -6.675000000
H     3.176000000     3.172000000    -5.928000000
H     2.370000000     2.456000000    -6.990000000
O    -2.120000000    -3.389000000     6.719000000
H    -3.032000000    -3.556000000     6.481000000
H    -2.045000000    -2.435000000     6.722000000
O     3.425000000    -2.168000000     2.836000000
H     2.699000000    -2.492000000     2.303000000
H     3.390000000    -1.217000000     2.735000000
O     0.848000000    -1.806000000     4.192000000
H     1.794000000    -1.750000000     4.325000000
H     0.585000000    -2.591000000     4.673000000
O    -3.030000000     1.923000000    -4.142000000
H    -2.219000000     1.474000000    -3.901000000
H    -2.829000000     2.351000000    -4.974000000
O     3.020000000     2.708000000     2.592000000
H     2.704000000     2.840000000     1.698000000
H     3.330000000     3.572000000     2.866000000
O    -0.293000000    -3.062000000    -3.823000000
H     0.494000000    -2.724000000    -3.396000000
H    -0.893000000    -3.255000000    -3.103000000
O    -0.422000000     0.522000000     5.284000000
H     0.175000000    -0.147000000     4.949000000
H    -0.303000000     1.267000000     4.695000000
O     1.535000000     4.568000000    -7.615000000
H     1.278000000     5.450000000    -7.348000000
H     1.250000000     4.007000000    -6.894000000
O    -5.121000000     0.280000000    -4.507000000
H    -4.434000000     0.901000000    -4.264000000
H    -5.230000000    -0.272000000    -3.732000000
O    -2.567000000     3.404000000    -6.151000000
H    -3.491000000     3.374000000    -6.399000000
H    -2.265000000     4.260000000    -6.453000000
O    -0.488000000    -4.689000000     4.954000000
H    -1.045000000    -5.025000000     4.251000000
H    -1.097000000    -4.273000000     5.564000000
O    -3.893000000     1.725000000    -1.190000000
H    -3.154000000     1.824000000    -0.591000000
H    -4.202000000     2.619000000    -1.339000000
O     0.130000000     2.387000000     3.272000000
H     1.008000000     2.404000000     2.889000000
H    -0.317000000     3.136000000     2.878000000
O    -4.932000000    -3.770000000     2.292000000
H    -4.139000000    -3.922000000     2.805000000
H    -5.011000000    -4.546000000     1.737000000
O     0.382000000    -5.697000000    -1.884000000
H     0.418000000    -6.424000000    -1.262000000
H    -0.199000000    -5.057000000    -1.472000000
O     1.727000000    -2.281000000    -7.304000000
H     1.468000000    -1.808000000    -8.095000000
H     1.277000000    -1.824000000    -6.594000000
O    -4.865000000     2.201000000     3.832000000
H    -4.241000000     1.497000000     3.654000000
H    -4.532000000     2.621000000     4.624000000
O     0.505000000     2.931000000    -5.379000000
H    -0.438000000     2.928000000    -5.542000000
H     0.643000000     2.216000000    -4.758000000
O    -4.567000000    -0.838000000    -1.994000000
H    -4.986000000    -1.269000000    -1.248000000
H    -4.305000000     0.019000000    -1.659000000
O    -0.138000000     4.413000000     1.337000000
H     0.764000000     4.417000000     1.015000000
H    -0.314000000     5.326000000     1.566000000
O    -5.705000000    -1.858000000     0.327000000
H    -5.377000000    -2.425000000     1.025000000
H    -6.656000000    -1.956000000     0.366000000
O    -2.725000000     0.822000000     7.095000000
H    -2.981000000     1.744000000     7.117000000
H    -1.875000000     0.819000000     6.654000000
O     1.419000000     3.914000000    -2.552000000
H     0.484000000     4.075000000    -2.429000000
H     1.463000000     3.035000000    -2.928000000
O     0.249000000    -1.022000000    -5.682000000
H    -0.119000000    -0.467000000    -4.995000000
H    -0.029000000    -1.908000000    -5.450000000
O    -1.808000000     2.354000000     0.335000000
H    -1.821000000     3.149000000     0.867000000
H    -0.883000000     2.216000000     0.133000000
O     1.550000000     2.610000000     5.852000000
H     1.322000000     2.995000000     5.005000000
H     0.974000000     3.051000000     6.477000000
O     4.601000000    -1.654000000    -4.307000000
H     5.021000000    -1.757000000    -3.453000000
H     4.401000000    -0.720000000    -4.364000000
O    -5.066000000     3.941000000    -3.798000000
H    -4.297000000     3.387000000    -3.930000000
H    -5.727000000     3.580000000    -4.389000000
O    -4.570000000    -0.753000000     5.534000000
H    -3.974000000    -0.810000000     4.787000000
H    -4.293000000     0.035000000     6.002000000
O     3.838000000     1.118000000    -4.086000000
H     2.943000000     1.137000000    -3.747000000
H     3.735000000     0.997000000    -5.030000000
O    -2.715000000    -3.387000000    -7.072000000
H    -3.567000000    -3.339000000    -7.505000000
H    -2.731000000    -2.676000000    -6.431000000
O    -2.550000000    -3.125000000    -2.137000000
H    -2.921000000    -2.244000000    -2.083000000
H    -3.310000000    -3.699000000    -2.234000000
O     3.342000000     0.715000000     4.747000000
H     3.268000000     1.243000000     3.952000000
H     2.982000000     1.271000000     5.438000000
O     5.916000000     2.046000000    -2.544000000
H     5.263000000     1.704000000    -3.154000000
H     6.673000000     2.250000000    -3.093000000
O     4.215000000    -1.682000000     6.353000000
H     3.858000000    -0.837000000     6.078000000
H     5.024000000    -1.461000000     6.813000000
O    -2.870000000    -1.186000000    -5.504000000
H    -3.729000000    -1.017000000    -5.116000000
H    -2.308000000    -0.496000000    -5.151000000
O     3.200000000     4.550000000    -4.945000000
H     2.663000000     4.213000000    -4.228000000
H     2.651000000     5.212000000    -5.364000000
O    -2.536000000    -0.516000000     3.822000000
H    -2.179000000    -0.232000000     2.981000000
H    -1.852000000    -0.304000000     4.457000000
O     0.706000000     0.531000000     7.970000000
H     0.719000000     0.888000000     7.082000000
H     0.618000000    -0.414000000     7.847000000
O    -0.997000000    -3.798000000     0.038000000
H    -1.726000000    -4.111000000     0.574000000
H    -1.415000000    -3.349000000    -0.696000000
O     0.677000000     0.333000000    -8.045000000
H     0.115000000     1.047000000    -8.346000000
H     0.384000000     0.159000000    -7.150000000
O     2.247000000     4.279000000     0.100000000
H     2.220000000     4.331000000    -0.856000000
H     3.180000000     4.272000000     0.313000000
O     1.635000000    -2.750000000     0.856000000
H     0.942000000    -3.350000000     0.582000000
H     1.174000000    -1.952000000     1.112000000
O     1.833000000    -2.205000000    -2.158000000
H     1.683000000    -1.926000000    -1.255000000
H     2.785000000    -2.248000000    -2.240000000
O    -1.194000000     4.462000000    -1.821000000
H    -1.073000000     4.226000000    -0.901000000
H    -1.731000000     5.253000000    -1.797000000
O     6.072000000     1.736000000     1.575000000
H     6.172000000     0.811000000     1.349000000
H     6.203000000     1.766000000     2.523000000
