158
-3028.82703
C    -0.273000000    -1.311000000    -0.576000000
H    -0.575000000    -2.248000000    -1.036000000
C    -1.125000000    -0.211000000    -0.599000000
H    -2.107000000    -0.390000000    -1.030000000
C    -0.726000000     1.003000000    -0.050000000
H    -1.377000000     1.885000000    -0.023000000
C     0.453000000     1.092000000     0.581000000
H     0.758000000     2.097000000     0.859000000
C     1.346000000     0.034000000     0.614000000
H     2.280000000     0.160000000     1.157000000
C     1.030000000    -1.207000000     0.013000000
C     1.823000000    -2.515000000     0.278000000
O     1.825000000    -3.408000000    -0.614000000
O     2.576000000    -2.564000000     1.232000000
O    -7.388000000     0.797000000    -1.544000000
H    -7.430000000     0.810000000    -0.588000000
H    -6.466000000     0.958000000    -1.746000000
O     0.369000000     5.016000000    -0.295000000
H     1.178000000     5.500000000    -0.463000000
H     0.029000000     5.393000000     0.517000000
O     4.758000000    -4.125000000     4.619000000
H     4.011000000    -4.722000000     4.582000000
H     5.510000000    -4.693000000     4.790000000
O    -1.955000000     2.099000000    -4.555000000
H    -2.837000000     2.387000000    -4.320000000
H    -1.452000000     2.910000000    -4.636000000
O    -0.250000000    -4.695000000    -2.152000000
H    -0.871000000    -5.035000000    -1.507000000
H     0.504000000    -4.415000000    -1.635000000
O     5.009000000    -3.507000000    -3.451000000
H     4.677000000    -3.427000000    -2.557000000
H     4.224000000    -3.583000000    -3.992000000
O     2.579000000    -6.359000000     4.118000000
H     1.801000000    -5.869000000     3.853000000
H     2.507000000    -6.427000000     5.070000000
O     1.216000000     6.197000000    -3.182000000
H     1.291000000     5.247000000    -3.277000000
H     0.358000000     6.408000000    -3.550000000
O     5.822000000    -4.181000000     1.891000000
H     6.516000000    -4.373000000     2.522000000
H     5.432000000    -3.365000000     2.204000000
O     3.290000000    -1.561000000     3.564000000
H     2.933000000    -1.947000000     2.764000000
H     3.603000000    -2.310000000     4.072000000
O     3.627000000     4.240000000    -1.579000000
H     3.458000000     3.521000000    -0.970000000
H     2.887000000     4.221000000    -2.185000000
O     2.614000000     4.742000000     2.012000000
H     2.141000000     3.983000000     1.671000000
H     3.164000000     4.387000000     2.710000000
O     3.050000000     2.787000000     4.107000000
H     3.836000000     2.247000000     4.182000000
H     2.327000000     2.159000000     4.104000000
O    -4.378000000     1.182000000    -1.256000000
H    -3.598000000     0.635000000    -1.160000000
H    -4.499000000     1.578000000    -0.393000000
O    -0.664000000    -5.623000000     1.548000000
H    -0.104000000    -5.118000000     2.137000000
H    -1.155000000    -6.208000000     2.125000000
O    -3.246000000     4.266000000     4.208000000
H    -2.912000000     5.103000000     3.886000000
H    -3.485000000     4.439000000     5.119000000
O    -2.228000000     5.041000000    -1.491000000
H    -2.895000000     5.347000000    -0.876000000
H    -1.438000000     4.943000000    -0.959000000
O    -1.166000000    -0.347000000     2.798000000
H    -1.200000000    -0.312000000     1.842000000
H    -1.533000000     0.491000000     3.081000000
O     0.439000000     2.484000000     4.958000000
H     0.814000000     1.649000000     4.678000000
H    -0.501000000     2.389000000     4.803000000
O    -3.746000000    -2.137000000     2.112000000
H    -3.657000000    -2.325000000     1.178000000
H    -2.904000000    -1.756000000     2.361000000
O     0.665000000    -4.455000000    -4.821000000
H    -0.285000000    -4.407000000    -4.924000000
H     0.842000000    -3.984000000    -4.007000000
O     1.481000000     0.325000000     4.062000000
H     2.238000000    -0.231000000     3.876000000
H     0.742000000    -0.138000000     3.668000000
O     1.108000000    -4.150000000     2.889000000
H     1.786000000    -3.730000000     2.359000000
H     1.194000000    -3.746000000     3.752000000
O     2.038000000    -2.253000000    -3.205000000
H     2.227000000    -2.710000000    -2.386000000
H     1.488000000    -1.514000000    -2.946000000
O    -3.067000000    -6.214000000    -2.849000000
H    -3.985000000    -6.217000000    -2.575000000
H    -2.574000000    -6.139000000    -2.032000000
O     3.707000000    -1.480000000    -5.254000000
H     3.260000000    -1.699000000    -4.437000000
H     3.469000000    -2.187000000    -5.854000000
O     1.211000000     3.419000000    -2.758000000
H     0.561000000     3.467000000    -2.057000000
H     1.304000000     2.483000000    -2.935000000
O    -1.330000000     5.513000000     2.152000000
H    -1.901000000     4.762000000     1.994000000
H    -1.896000000     6.275000000     2.030000000
O    -2.548000000    -0.801000000    -4.216000000
H    -2.148000000     0.062000000    -4.325000000
H    -2.816000000    -1.054000000    -5.100000000
O    -4.298000000     3.219000000    -2.842000000
H    -4.411000000     2.397000000    -2.367000000
H    -3.623000000     3.689000000    -2.352000000
O    -2.216000000    -5.701000000    -0.487000000
H    -1.672000000    -5.439000000     0.256000000
H    -3.113000000    -5.531000000    -0.199000000
O     4.857000000    -2.386000000    -0.274000000
H     4.116000000    -2.785000000     0.182000000
H     5.601000000    -2.950000000    -0.063000000
O    -4.063000000    -2.733000000    -0.556000000
H    -5.017000000    -2.777000000    -0.491000000
H    -3.882000000    -2.825000000    -1.491000000
O     3.844000000     0.053000000    -1.589000000
H     4.578000000     0.487000000    -2.024000000
H     4.256000000    -0.533000000    -0.954000000
O    -4.296000000     2.214000000     1.455000000
H    -4.295000000     2.937000000     2.081000000
H    -4.633000000     1.467000000     1.951000000
O    -2.063000000     1.841000000     4.371000000
H    -2.509000000     1.472000000     5.133000000
H    -2.539000000     2.649000000     4.183000000
O     1.792000000    -6.110000000     0.408000000
H     2.026000000    -5.182000000     0.394000000
H     0.910000000    -6.129000000     0.781000000
O     6.129000000    -0.095000000     1.071000000
H     5.766000000     0.218000000     1.899000000
H     5.504000000    -0.754000000     0.769000000
O     2.121000000    -3.315000000     5.583000000
H     2.777000000    -2.753000000     5.996000000
H     2.229000000    -4.164000000     6.012000000
O     4.945000000     0.656000000     3.613000000
H     4.894000000     0.825000000     4.554000000
H     4.430000000    -0.141000000     3.485000000
O    -5.270000000     0.040000000    -4.446000000
H    -4.634000000    -0.183000000    -3.766000000
H    -4.773000000    -0.010000000    -5.263000000
O    -3.431000000    -3.265000000    -3.268000000
H    -3.293000000    -2.327000000    -3.401000000
H    -2.549000000    -3.636000000    -3.241000000
O     1.443000000     0.745000000    -2.632000000
H     2.361000000     0.564000000    -2.426000000
H     0.949000000     0.158000000    -2.060000000
O    -4.513000000     5.225000000    -0.097000000
H    -4.944000000     5.070000000     0.743000000
H    -5.190000000     5.047000000    -0.750000000
O    -5.262000000     0.026000000     2.656000000
H    -5.462000000     0.219000000     3.572000000
H    -4.829000000    -0.828000000     2.680000000
O     3.656000000    -8.005000000    -1.092000000
H     3.010000000    -7.300000000    -1.125000000
H     4.499000000    -7.563000000    -1.189000000
O    -1.820000000     6.354000000    -3.887000000
H    -2.076000000     5.959000000    -3.053000000
H    -2.203000000     7.231000000    -3.864000000
O     3.460000000     2.212000000     0.270000000
H     3.344000000     1.416000000    -0.249000000
H     4.391000000     2.221000000     0.490000000
