158
-3013.58538
C     1.053000000    -0.098000000    -1.044000000
H     1.742000000    -0.078000000    -1.884000000
C    -0.366000000    -0.210000000    -1.203000000
H    -0.849000000    -0.318000000    -2.171000000
C    -1.231000000     0.045000000    -0.121000000
H    -2.320000000     0.073000000    -0.261000000
C    -0.695000000     0.162000000     1.133000000
H    -1.344000000     0.295000000     1.995000000
C     0.662000000     0.029000000     1.291000000
H     1.084000000     0.163000000     2.284000000
C     1.579000000     0.017000000     0.206000000
C     3.049000000    -0.042000000     0.333000000
O     3.743000000    -0.152000000    -0.672000000
O     3.597000000     0.226000000     1.396000000
O    -5.618000000    -2.430000000     0.990000000
H    -5.824000000    -1.500000000     1.078000000
H    -4.722000000    -2.446000000     0.654000000
O    -5.118000000     1.903000000    -5.140000000
H    -5.814000000     1.577000000    -4.569000000
H    -5.475000000     1.820000000    -6.024000000
O     6.988000000     2.909000000    -2.194000000
H     7.086000000     1.958000000    -2.151000000
H     6.052000000     3.060000000    -2.059000000
O     2.469000000     5.108000000     1.587000000
H     2.824000000     4.312000000     1.191000000
H     2.183000000     4.835000000     2.458000000
O    -1.837000000     5.083000000    -1.482000000
H    -1.790000000     4.663000000    -0.624000000
H    -1.576000000     4.398000000    -2.098000000
O    -1.902000000    -3.373000000    -6.354000000
H    -2.570000000    -3.217000000    -5.687000000
H    -1.487000000    -4.194000000    -6.090000000
O    -1.939000000    -2.651000000     3.539000000
H    -1.644000000    -2.770000000     2.637000000
H    -2.491000000    -1.869000000     3.510000000
O    -0.424000000    -5.165000000    -2.791000000
H     0.449000000    -4.773000000    -2.815000000
H    -0.601000000    -5.299000000    -1.860000000
O     3.813000000    -0.124000000    -6.440000000
H     4.193000000     0.625000000    -6.899000000
H     3.002000000     0.214000000    -6.060000000
O     2.717000000    -1.441000000     3.256000000
H     3.001000000    -0.885000000     2.530000000
H     2.363000000    -0.830000000     3.902000000
O    -4.874000000     2.801000000    -0.267000000
H    -4.742000000     3.269000000     0.558000000
H    -5.600000000     3.261000000    -0.689000000
O    -3.558000000     1.097000000     6.743000000
H    -4.142000000     1.788000000     6.430000000
H    -2.717000000     1.289000000     6.329000000
O    -5.042000000    -4.687000000     3.530000000
H    -4.809000000    -3.781000000     3.736000000
H    -5.097000000    -5.119000000     4.382000000
O    -5.926000000     0.553000000     2.074000000
H    -5.906000000     1.458000000     1.761000000
H    -6.853000000     0.313000000     2.053000000
O     4.101000000    -5.032000000     1.556000000
H     4.615000000    -5.831000000     1.442000000
H     4.233000000    -4.544000000     0.743000000
O    -2.799000000     2.154000000     3.573000000
H    -3.490000000     2.755000000     3.293000000
H    -3.111000000     1.290000000     3.306000000
O     1.781000000    -3.710000000    -3.300000000
H     2.228000000    -3.015000000    -2.816000000
H     2.221000000    -3.731000000    -4.150000000
O    -4.796000000     3.706000000     2.453000000
H    -5.698000000     3.651000000     2.769000000
H    -4.447000000     4.500000000     2.858000000
O    -0.826000000     3.275000000    -3.464000000
H    -1.217000000     2.405000000    -3.386000000
H    -0.693000000     3.394000000    -4.404000000
O    -5.144000000    -5.127000000     0.664000000
H    -4.851000000    -5.135000000     1.575000000
H    -5.802000000    -4.433000000     0.630000000
O     3.853000000     2.287000000    -2.249000000
H     3.864000000     1.462000000    -1.764000000
H     3.137000000     2.786000000    -1.856000000
O    -0.848000000     5.066000000     4.257000000
H    -0.700000000     5.795000000     3.655000000
H    -0.145000000     4.446000000     4.060000000
O    -0.701000000    -3.205000000     0.732000000
H    -0.205000000    -2.489000000     0.334000000
H    -0.036000000    -3.768000000     1.127000000
O     4.012000000    -2.180000000    -2.255000000
H     4.069000000    -1.288000000    -1.914000000
H     4.420000000    -2.722000000    -1.579000000
O     0.282000000    -1.678000000    -6.444000000
H    -0.024000000    -1.381000000    -5.587000000
H    -0.276000000    -2.428000000    -6.651000000
O     4.926000000    -2.517000000    -5.440000000
H     4.978000000    -2.534000000    -4.484000000
H     4.665000000    -1.620000000    -5.650000000
O     7.063000000    -0.363000000    -3.222000000
H     6.388000000    -0.045000000    -3.822000000
H     7.126000000    -1.300000000    -3.408000000
O     5.495000000    -0.143000000     3.541000000
H     5.036000000    -0.045000000     2.707000000
H     5.372000000    -1.062000000     3.776000000
O     8.237000000     0.507000000     4.178000000
H     8.503000000     1.213000000     3.590000000
H     7.341000000     0.298000000     3.911000000
O    -3.829000000    -0.462000000     3.375000000
H    -4.612000000    -0.239000000     2.872000000
H    -4.156000000    -0.975000000     4.114000000
O    -1.059000000     3.566000000     0.786000000
H    -1.668000000     4.001000000     1.384000000
H    -0.986000000     2.674000000     1.126000000
O    -7.442000000    -2.215000000    -2.205000000
H    -7.767000000    -1.369000000    -1.898000000
H    -6.506000000    -2.075000000    -2.348000000
O     5.344000000     1.665000000    -4.357000000
H     5.058000000     2.248000000    -5.060000000
H     4.811000000     1.918000000    -3.603000000
O    -2.216000000     1.639000000    -5.413000000
H    -2.490000000     1.039000000    -6.106000000
H    -3.028000000     2.053000000    -5.121000000
O     6.398000000     0.093000000    -0.523000000
H     6.568000000    -0.131000000    -1.438000000
H     5.444000000     0.134000000    -0.459000000
O     4.095000000     2.057000000     4.839000000
H     3.553000000     1.475000000     5.372000000
H     4.587000000     1.468000000     4.266000000
O    -4.587000000    -1.920000000    -2.559000000
H    -3.975000000    -2.199000000    -1.878000000
H    -4.716000000    -0.985000000    -2.396000000
O     5.097000000    -2.974000000    -0.044000000
H     5.005000000    -2.035000000     0.118000000
H     6.041000000    -3.130000000    -0.021000000
O     7.780000000     1.874000000     1.617000000
H     7.210000000     1.201000000     1.245000000
H     7.273000000     2.683000000     1.547000000
O     2.387000000     0.236000000     5.814000000
H     2.085000000     0.917000000     6.415000000
H     3.193000000    -0.094000000     6.212000000
O    -0.328000000     1.734000000     4.245000000
H    -0.116000000     0.946000000     4.747000000
H    -1.285000000     1.762000000     4.238000000
O    -5.192000000     0.680000000    -2.086000000
H    -5.801000000     1.024000000    -2.740000000
H    -5.136000000     1.369000000    -1.424000000
O    -4.670000000    -1.390000000    -5.538000000
H    -4.666000000    -1.565000000    -4.597000000
H    -5.566000000    -1.112000000    -5.726000000
O     3.731000000     2.870000000     0.681000000
H     4.658000000     2.815000000     0.913000000
H     3.356000000     2.047000000     0.995000000
O     1.803000000     3.476000000     3.880000000
H     2.608000000     3.121000000     4.256000000
H     1.153000000     2.786000000     4.010000000
O     3.865000000    -3.939000000     4.116000000
H     3.918000000    -4.262000000     3.217000000
H     3.471000000    -3.070000000     4.036000000
O     1.228000000     3.763000000    -1.600000000
H     0.616000000     3.318000000    -2.187000000
H     0.802000000     3.734000000    -0.743000000
O    -3.198000000    -2.532000000    -0.042000000
H    -2.605000000    -1.828000000     0.222000000
H    -2.743000000    -3.335000000     0.212000000
