158
-3021.83117
C     0.745000000    -1.024000000    -0.682000000
H     1.174000000    -1.902000000    -1.159000000
C    -0.568000000    -0.593000000    -1.033000000
H    -1.155000000    -1.210000000    -1.708000000
C    -1.196000000     0.351000000    -0.263000000
H    -2.205000000     0.606000000    -0.604000000
C    -0.450000000     1.063000000     0.678000000
H    -0.921000000     1.869000000     1.235000000
C     0.857000000     0.704000000     0.928000000
H     1.340000000     1.250000000     1.735000000
C     1.520000000    -0.354000000     0.252000000
C     3.003000000    -0.831000000     0.508000000
O     3.512000000    -1.834000000     0.061000000
O     3.674000000    -0.084000000     1.234000000
O    -6.481000000    -1.976000000     0.719000000
H    -5.711000000    -1.685000000     1.208000000
H    -6.140000000    -2.214000000    -0.144000000
O    -4.596000000    -0.739000000    -1.975000000
H    -5.231000000    -0.106000000    -1.640000000
H    -5.027000000    -1.133000000    -2.733000000
O    -2.191000000    -4.954000000     0.653000000
H    -1.381000000    -4.998000000     0.144000000
H    -2.477000000    -5.865000000     0.726000000
O    -1.287000000     1.183000000    -5.295000000
H    -2.061000000     1.483000000    -4.819000000
H    -1.598000000     0.444000000    -5.818000000
O    -0.018000000    -4.756000000    -0.901000000
H    -0.210000000    -4.571000000    -1.820000000
H     0.745000000    -4.213000000    -0.702000000
O     0.513000000    -5.225000000     2.525000000
H     0.309000000    -4.541000000     3.163000000
H     1.220000000    -4.856000000     1.995000000
O     3.276000000    -1.348000000     3.641000000
H     3.386000000    -0.888000000     2.809000000
H     3.522000000    -0.703000000     4.305000000
O    -5.138000000     5.389000000     0.688000000
H    -4.373000000     5.640000000     1.205000000
H    -5.875000000     5.807000000     1.133000000
O    -3.982000000     3.110000000     0.446000000
H    -3.723000000     3.024000000    -0.472000000
H    -4.441000000     3.949000000     0.488000000
O    -6.544000000     3.097000000    -2.864000000
H    -6.667000000     3.755000000    -3.548000000
H    -6.710000000     3.566000000    -2.047000000
O    -4.701000000     0.924000000     1.900000000
H    -4.377000000     1.749000000     1.539000000
H    -5.160000000     0.507000000     1.170000000
O    -6.692000000     1.659000000     3.666000000
H    -5.921000000     1.493000000     3.123000000
H    -7.385000000     1.867000000     3.040000000
O     6.165000000    -5.025000000    -0.560000000
H     5.606000000    -5.249000000     0.184000000
H     6.492000000    -5.867000000    -0.876000000
O     2.105000000    -4.013000000     0.782000000
H     2.772000000    -4.645000000     1.049000000
H     2.581000000    -3.187000000     0.690000000
O    -0.436000000    -1.152000000     3.820000000
H    -1.104000000    -0.475000000     3.925000000
H    -0.778000000    -1.722000000     3.131000000
O     2.242000000    -3.205000000    -4.502000000
H     3.015000000    -3.445000000    -3.990000000
H     2.496000000    -3.368000000    -5.410000000
O    -2.513000000     0.916000000     3.970000000
H    -2.901000000     1.034000000     3.103000000
H    -2.782000000     1.693000000     4.460000000
O    -0.916000000     4.076000000    -1.466000000
H    -1.736000000     3.864000000    -1.912000000
H    -0.498000000     3.228000000    -1.315000000
O     3.104000000    -0.405000000    -4.090000000
H     2.416000000    -1.071000000    -4.054000000
H     2.648000000     0.396000000    -4.347000000
O    -0.397000000     3.353000000     3.387000000
H     0.331000000     3.714000000     3.893000000
H    -0.308000000     2.405000000     3.483000000
O     1.148000000    -3.263000000     4.424000000
H     0.629000000    -2.468000000     4.306000000
H     2.056000000    -2.968000000     4.365000000
O    -1.499000000    -2.649000000     1.984000000
H    -1.500000000    -1.980000000     1.299000000
H    -1.444000000    -3.478000000     1.508000000
O     4.488000000    -2.169000000    -2.263000000
H     4.245000000    -2.190000000    -1.338000000
H     4.010000000    -1.420000000    -2.619000000
O    -0.008000000    -4.455000000    -3.776000000
H     0.674000000    -3.846000000    -4.059000000
H    -0.703000000    -4.355000000    -4.427000000
O     6.447000000    -2.750000000    -3.901000000
H     5.751000000    -2.730000000    -3.244000000
H     7.079000000    -2.098000000    -3.600000000
O     1.881000000    -6.802000000    -1.999000000
H     2.186000000    -7.268000000    -1.220000000
H     1.351000000    -6.083000000    -1.656000000
O     5.565000000     0.982000000     2.712000000
H     5.069000000     0.624000000     1.975000000
H     5.559000000     0.283000000     3.366000000
O     6.459000000    -1.421000000     3.696000000
H     6.249000000    -1.865000000     2.874000000
H     7.083000000    -2.003000000     4.130000000
O    -4.612000000    -1.739000000     3.092000000
H    -4.127000000    -0.974000000     2.780000000
H    -4.680000000    -1.609000000     4.038000000
O    -1.446000000     6.144000000     2.430000000
H    -1.235000000     5.242000000     2.671000000
H    -2.361000000     6.253000000     2.691000000
O    -3.095000000     3.606000000     4.515000000
H    -2.216000000     3.645000000     4.138000000
H    -3.305000000     4.515000000     4.728000000
O    -3.826000000     2.378000000    -2.410000000
H    -4.655000000     2.742000000    -2.721000000
H    -4.073000000     1.574000000    -1.954000000
O     5.737000000     0.831000000    -0.751000000
H     5.793000000     0.159000000    -1.430000000
H     4.952000000     0.603000000    -0.253000000
O     5.439000000     2.781000000     4.735000000
H     6.339000000     2.685000000     5.046000000
H     5.402000000     2.247000000     3.942000000
O    -5.708000000    -2.571000000    -3.863000000
H    -5.208000000    -3.342000000    -3.595000000
H    -6.623000000    -2.832000000    -3.763000000
O     5.747000000    -2.500000000     1.246000000
H     4.971000000    -2.234000000     0.753000000
H     6.418000000    -2.642000000     0.577000000
O     7.507000000     2.155000000     0.881000000
H     6.938000000     2.060000000     0.117000000
H     6.962000000     1.883000000     1.620000000
O     3.636000000     0.588000000     5.546000000
H     4.013000000     0.153000000     6.310000000
H     4.194000000     1.354000000     5.406000000
O     0.922000000     0.929000000     4.839000000
H     1.752000000     0.832000000     5.304000000
H     0.826000000     0.114000000     4.346000000
O     1.538000000     1.572000000    -4.961000000
H     1.410000000     2.415000000    -5.397000000
H     0.742000000     1.078000000    -5.157000000
O    -5.000000000    -0.831000000    -5.780000000
H    -5.090000000    -1.384000000    -5.004000000
H    -4.181000000    -0.356000000    -5.642000000
O     3.571000000     3.577000000     1.189000000
H     3.656000000     2.651000000     1.413000000
H     2.632000000     3.753000000     1.250000000
O     7.688000000    -4.599000000     1.999000000
H     7.175000000    -3.930000000     1.546000000
H     8.464000000    -4.718000000     1.452000000
O    -6.294000000     1.049000000    -0.719000000
H    -6.470000000     1.980000000    -0.581000000
H    -7.134000000     0.620000000    -0.557000000
O     4.249000000    -3.800000000     3.339000000
H     4.891000000    -3.792000000     2.629000000
H     3.948000000    -2.893000000     3.401000000
O     1.107000000     4.809000000     0.516000000
H     1.221000000     4.712000000    -0.429000000
H     0.325000000     4.296000000     0.717000000
O    -3.923000000    -4.036000000    -1.253000000
H    -3.831000000    -3.114000000    -1.493000000
H    -3.173000000    -4.212000000    -0.685000000
O     7.641000000    -2.848000000    -0.648000000
H     7.128000000    -3.638000000    -0.818000000
H     8.493000000    -3.024000000    -1.048000000
