158
-3039.74847
C    -0.720000000    -1.268000000    -0.133000000
H    -1.368000000    -2.141000000    -0.127000000
C    -1.296000000     0.002000000    -0.238000000
H    -2.352000000     0.081000000    -0.487000000
C    -0.495000000     1.129000000    -0.119000000
H    -1.049000000     2.073000000    -0.190000000
C     0.887000000     1.014000000     0.148000000
H     1.578000000     1.838000000     0.304000000
C     1.410000000    -0.262000000     0.282000000
H     2.476000000    -0.338000000     0.482000000
C     0.613000000    -1.426000000     0.238000000
C     1.226000000    -2.834000000     0.355000000
O     0.613000000    -3.900000000     0.310000000
O     2.410000000    -2.967000000     0.511000000
O    -1.929000000     4.427000000    -0.167000000
H    -1.565000000     5.177000000     0.304000000
H    -2.198000000     3.820000000     0.522000000
O     4.834000000    -4.878000000     2.494000000
H     3.960000000    -4.884000000     2.884000000
H     5.428000000    -4.800000000     3.240000000
O    -1.138000000    -2.913000000     3.629000000
H    -1.470000000    -2.084000000     3.283000000
H    -1.668000000    -3.076000000     4.409000000
O     1.775000000     6.381000000    -2.914000000
H     0.920000000     6.226000000    -2.514000000
H     2.260000000     5.569000000    -2.765000000
O    -1.607000000     0.001000000    -3.559000000
H    -1.955000000    -0.503000000    -2.823000000
H    -0.657000000    -0.091000000    -3.485000000
O    -2.540000000     2.173000000    -5.377000000
H    -2.296000000     1.336000000    -4.983000000
H    -3.131000000     2.574000000    -4.740000000
O     0.218000000    -3.976000000    -2.595000000
H    -0.462000000    -4.519000000    -2.195000000
H     0.814000000    -3.771000000    -1.875000000
O     2.721000000    -4.870000000     3.912000000
H     1.782000000    -4.814000000     3.736000000
H     2.785000000    -5.418000000     4.695000000
O    -0.792000000     5.797000000    -2.169000000
H    -1.455000000     5.448000000    -1.574000000
H    -0.813000000     5.207000000    -2.923000000
O     4.867000000    -2.118000000     1.260000000
H     3.947000000    -2.354000000     1.140000000
H     5.270000000    -2.905000000     1.627000000
O     2.772000000     4.358000000    -1.208000000
H     2.879000000     3.771000000    -0.459000000
H     2.056000000     3.973000000    -1.713000000
O     2.072000000     5.627000000     2.007000000
H     2.812000000     5.145000000     1.638000000
H     1.498000000     4.948000000     2.363000000
O     3.280000000     2.538000000     3.678000000
H     4.220000000     2.627000000     3.836000000
H     3.020000000     1.782000000     4.203000000
O    -4.912000000     1.228000000    -0.873000000
H    -4.727000000     0.290000000    -0.921000000
H    -4.836000000     1.440000000     0.057000000
O    -4.287000000     5.012000000    -1.539000000
H    -4.378000000     5.945000000    -1.347000000
H    -3.533000000     4.733000000    -1.018000000
O    -1.498000000    -0.070000000     2.922000000
H    -1.189000000     0.315000000     2.102000000
H    -0.779000000     0.071000000     3.538000000
O     0.606000000     1.169000000     4.477000000
H     1.101000000     0.426000000     4.131000000
H     0.950000000     1.295000000     5.362000000
O    -3.899000000    -2.803000000     1.482000000
H    -3.529000000    -3.637000000     1.191000000
H    -4.121000000    -2.344000000     0.672000000
O    -0.614000000    -3.323000000    -5.103000000
H    -0.851000000    -2.439000000    -5.385000000
H    -0.374000000    -3.224000000    -4.182000000
O     0.112000000     3.727000000     2.685000000
H    -0.674000000     3.274000000     2.379000000
H     0.556000000     3.087000000     3.241000000
O     1.513000000    -1.919000000     3.441000000
H     1.738000000    -2.541000000     2.749000000
H     0.571000000    -2.034000000     3.569000000
O    -0.048000000    -5.072000000     2.506000000
H     0.444000000    -4.623000000     1.819000000
H    -0.434000000    -4.366000000     3.025000000
O     2.733000000    -4.068000000    -3.718000000
H     1.813000000    -4.173000000    -3.475000000
H     2.725000000    -3.398000000    -4.402000000
O     6.037000000     1.394000000     0.663000000
H     5.857000000     0.885000000     1.454000000
H     6.287000000     0.740000000     0.010000000
O     0.651000000    -8.079000000    -1.309000000
H    -0.145000000    -8.328000000    -0.840000000
H     1.075000000    -7.439000000    -0.737000000
O     1.072000000     3.116000000    -2.895000000
H     0.276000000     2.935000000    -2.395000000
H     0.979000000     2.594000000    -3.691000000
O    -2.503000000     2.833000000     2.063000000
H    -3.215000000     2.193000000     2.074000000
H    -2.766000000     3.493000000     2.704000000
O    -4.355000000     2.748000000    -3.083000000
H    -4.455000000     2.051000000    -2.434000000
H    -4.489000000     3.556000000    -2.588000000
O    -2.196000000    -5.375000000    -1.724000000
H    -2.316000000    -5.203000000    -0.790000000
H    -3.066000000    -5.626000000    -2.035000000
O    -0.829000000     8.235000000    -0.076000000
H    -0.797000000     7.530000000     0.570000000
H    -0.964000000     7.789000000    -0.912000000
O     4.399000000    -3.033000000    -1.421000000
H     3.882000000    -3.353000000    -0.681000000
H     3.853000000    -3.207000000    -2.188000000
O    -2.490000000    -5.093000000     1.064000000
H    -1.563000000    -5.032000000     1.296000000
H    -2.708000000    -6.017000000     1.191000000
O    -3.130000000     4.882000000     3.449000000
H    -3.585000000     4.541000000     4.219000000
H    -3.753000000     5.491000000     3.053000000
O    -4.587000000    -1.607000000    -1.094000000
H    -5.068000000    -2.406000000    -0.877000000
H    -4.394000000    -1.691000000    -2.028000000
O     4.097000000    -0.233000000    -2.399000000
H     4.764000000     0.385000000    -2.101000000
H     4.366000000    -1.073000000    -2.028000000
O    -5.230000000     1.779000000     1.984000000
H    -5.958000000     2.260000000     2.378000000
H    -5.197000000     0.955000000     2.470000000
O     1.551000000    -6.514000000     0.660000000
H     1.485000000    -5.579000000     0.464000000
H     0.827000000    -6.684000000     1.262000000
O     6.567000000    -0.926000000    -0.733000000
H     5.875000000    -1.348000000    -0.224000000
H     7.351000000    -1.442000000    -0.546000000
O     4.859000000     6.061000000    -0.778000000
H     4.251000000     5.357000000    -1.003000000
H     4.469000000     6.479000000    -0.010000000
O     6.267000000    -0.280000000     3.274000000
H     6.319000000    -0.580000000     4.181000000
H     5.637000000    -0.871000000     2.862000000
O    -3.446000000    -2.081000000    -3.587000000
H    -2.919000000    -1.705000000    -4.292000000
H    -3.434000000    -3.023000000    -3.756000000
O    -1.809000000     5.021000000    -4.844000000
H    -2.708000000     5.350000000    -4.818000000
H    -1.891000000     4.087000000    -4.651000000
O     0.921000000    -0.268000000    -2.659000000
H     1.858000000    -0.279000000    -2.851000000
H     0.872000000    -0.170000000    -1.708000000
O     3.965000000    -7.327000000     1.439000000
H     4.246000000    -6.447000000     1.690000000
H     3.084000000    -7.206000000     1.086000000
O    -6.503000000     4.323000000     0.304000000
H    -6.100000000     3.513000000     0.617000000
H    -5.881000000     4.668000000    -0.336000000
O    -0.994000000     6.334000000     1.950000000
H    -0.799000000     5.466000000     2.303000000
H    -1.523000000     6.755000000     2.628000000
O     7.000000000    -4.240000000    -2.001000000
H     7.060000000    -3.832000000    -2.865000000
H     6.203000000    -3.873000000    -1.618000000
O     3.719000000     3.340000000     1.190000000
H     4.554000000     2.936000000     0.953000000
H     3.559000000     3.051000000     2.089000000
