158
-3066.05987
C     0.152000000    -0.762000000    -1.258000000
H     0.025000000    -1.339000000    -2.171000000
C    -0.647000000     0.387000000    -1.110000000
H    -1.262000000     0.719000000    -1.944000000
C    -0.701000000     1.027000000     0.126000000
H    -1.304000000     1.948000000     0.288000000
C    -0.020000000     0.486000000     1.246000000
H    -0.003000000     1.005000000     2.200000000
C     0.808000000    -0.573000000     1.058000000
H     1.518000000    -0.838000000     1.837000000
C     0.944000000    -1.248000000    -0.182000000
C     1.803000000    -2.492000000    -0.326000000
O     1.924000000    -3.016000000    -1.440000000
O     2.355000000    -3.074000000     0.597000000
O     2.752000000     5.294000000    -0.692000000
H     3.107000000     5.881000000    -0.024000000
H     1.926000000     4.983000000    -0.321000000
O    -1.013000000    -2.812000000     4.781000000
H    -0.773000000    -2.708000000     3.860000000
H    -1.164000000    -1.919000000     5.091000000
O    -3.337000000     2.460000000    -4.928000000
H    -3.718000000     3.308000000    -5.159000000
H    -2.482000000     2.676000000    -4.555000000
O     0.050000000    -4.291000000    -3.006000000
H    -0.112000000    -4.916000000    -2.299000000
H     0.814000000    -3.793000000    -2.715000000
O     5.513000000    -3.994000000    -2.755000000
H     5.678000000    -3.892000000    -1.818000000
H     5.799000000    -3.166000000    -3.140000000
O     1.959000000    -0.083000000     4.716000000
H     2.182000000    -0.410000000     5.588000000
H     2.199000000    -0.796000000     4.124000000
O     2.805000000    -6.249000000     2.247000000
H     2.579000000    -5.379000000     2.575000000
H     2.113000000    -6.819000000     2.582000000
O     5.156000000    -5.100000000     1.417000000
H     4.407000000    -5.695000000     1.419000000
H     5.513000000    -5.159000000     2.304000000
O     3.514000000    -1.873000000     2.616000000
H     3.140000000    -2.181000000     1.791000000
H     4.133000000    -2.557000000     2.869000000
O     2.655000000     4.556000000     2.941000000
H     2.579000000     3.712000000     3.385000000
H     1.922000000     4.570000000     2.325000000
O    -3.513000000     2.697000000    -1.580000000
H    -3.960000000     1.855000000    -1.503000000
H    -3.442000000     3.015000000    -0.680000000
O    -0.817000000    -6.010000000     2.165000000
H    -0.306000000    -5.226000000     2.364000000
H    -0.648000000    -6.600000000     2.899000000
O    -4.700000000     0.769000000     0.313000000
H    -5.572000000     0.596000000    -0.042000000
H    -4.125000000     0.170000000    -0.163000000
O    -5.532000000     2.602000000     2.370000000
H    -5.373000000     1.716000000     2.044000000
H    -6.065000000     2.477000000     3.155000000
O    -0.128000000     5.675000000    -1.930000000
H    -0.364000000     6.149000000    -1.133000000
H     0.803000000     5.476000000    -1.824000000
O     3.090000000    -5.014000000    -3.077000000
H     2.539000000    -4.912000000    -2.301000000
H     3.912000000    -4.581000000    -2.845000000
O     4.115000000    -7.152000000    -4.300000000
H     3.826000000    -6.327000000    -3.909000000
H     3.330000000    -7.505000000    -4.720000000
O    -3.191000000    -1.616000000    -0.357000000
H    -2.671000000    -2.379000000    -0.609000000
H    -3.079000000    -1.553000000     0.591000000
O     0.414000000     4.073000000     1.006000000
H     0.015000000     3.468000000     1.632000000
H    -0.174000000     4.059000000     0.252000000
O     0.492000000    -2.312000000    -5.153000000
H    -0.143000000    -2.697000000    -5.756000000
H     0.003000000    -2.184000000    -4.340000000
O    -2.433000000     5.965000000     3.453000000
H    -1.787000000     6.664000000     3.351000000
H    -1.914000000     5.190000000     3.670000000
O    -1.164000000     3.130000000     3.164000000
H    -2.028000000     2.774000000     2.952000000
H    -0.847000000     2.578000000     3.879000000
O     0.021000000     1.745000000     5.336000000
H     0.170000000     2.196000000     6.167000000
H     0.792000000     1.190000000     5.223000000
O     0.995000000    -3.881000000     2.759000000
H     1.464000000    -3.638000000     1.960000000
H     1.249000000    -3.215000000     3.397000000
O     2.966000000    -2.102000000    -3.830000000
H     2.653000000    -2.377000000    -2.968000000
H     2.243000000    -2.307000000    -4.423000000
O     4.160000000     0.468000000    -3.362000000
H     3.686000000    -0.289000000    -3.706000000
H     3.641000000     0.755000000    -2.611000000
O     2.225000000     3.979000000    -3.002000000
H     2.864000000     4.495000000    -2.510000000
H     2.299000000     3.097000000    -2.637000000
O    -1.147000000     6.684000000     0.255000000
H    -0.807000000     7.006000000     1.089000000
H    -2.099000000     6.710000000     0.358000000
O    -2.825000000    -1.593000000    -5.144000000
H    -3.663000000    -1.531000000    -5.603000000
H    -2.212000000    -1.111000000    -5.699000000
O    -1.321000000     3.308000000    -2.895000000
H    -2.088000000     3.031000000    -2.394000000
H    -0.920000000     3.993000000    -2.360000000
O    -1.797000000    -3.836000000    -0.579000000
H    -1.106000000    -4.065000000     0.042000000
H    -2.525000000    -4.414000000    -0.352000000
O     4.986000000    -3.036000000    -0.130000000
H     4.057000000    -3.101000000    -0.352000000
H     5.107000000    -3.669000000     0.578000000
O    -0.421000000     2.691000000    -5.451000000
H    -0.652000000     2.799000000    -4.528000000
H     0.529000000     2.579000000    -5.449000000
O     5.672000000    -0.510000000    -0.835000000
H     5.893000000    -0.706000000    -1.746000000
H     5.394000000    -1.351000000    -0.471000000
O    -3.139000000     4.093000000     1.169000000
H    -2.945000000     4.785000000     1.802000000
H    -4.009000000     3.780000000     1.417000000
O    -2.950000000    -0.182000000     2.314000000
H    -3.327000000    -0.054000000     3.184000000
H    -3.527000000     0.309000000     1.728000000
O     2.378000000    -5.553000000    -0.465000000
H     2.265000000    -4.602000000    -0.472000000
H     2.723000000    -5.746000000     0.407000000
O     1.882000000    -3.163000000     5.292000000
H     1.938000000    -2.501000000     5.980000000
H     0.999000000    -3.522000000     5.376000000
O    -1.830000000    -0.362000000     5.827000000
H    -2.716000000    -0.287000000     5.471000000
H    -1.330000000     0.314000000     5.370000000
O     4.332000000     0.872000000     2.970000000
H     4.831000000     0.963000000     3.781000000
H     3.904000000     0.019000000     3.045000000
O    -3.720000000     0.221000000    -3.113000000
H    -3.564000000     0.879000000    -3.790000000
H    -3.217000000    -0.542000000    -3.400000000
O    -2.729000000    -3.948000000    -3.491000000
H    -2.832000000    -3.058000000    -3.829000000
H    -1.838000000    -3.969000000    -3.142000000
O     2.226000000     1.598000000    -1.708000000
H     2.623000000     1.592000000    -0.837000000
H     1.391000000     1.144000000    -1.594000000
O     3.510000000    -7.974000000    -1.383000000
H     3.086000000    -7.123000000    -1.490000000
H     4.431000000    -7.766000000    -1.229000000
O    -1.820000000     6.036000000    -4.143000000
H    -2.642000000     5.550000000    -4.064000000
H    -1.372000000     5.883000000    -3.311000000
O     4.353000000     1.705000000     0.286000000
H     4.743000000     0.989000000    -0.216000000
H     4.473000000     1.449000000     1.201000000
O     4.608000000    -3.728000000    -5.420000000
H     4.945000000    -4.136000000    -4.623000000
H     3.838000000    -3.239000000    -5.132000000
O    -1.405000000     0.250000000    -6.403000000
H    -0.545000000    -0.011000000    -6.732000000
H    -1.235000000     1.041000000    -5.892000000
