158
-2978.33190
C    -0.447000000    -0.615000000    -1.232000000
H    -0.960000000    -0.971000000    -2.122000000
C    -0.983000000    -0.880000000    -0.017000000
H    -1.909000000    -1.442000000     0.075000000
C    -0.462000000    -0.276000000     1.131000000
H    -1.021000000    -0.395000000     2.016000000
C     0.634000000     0.550000000     1.012000000
H     0.896000000     1.178000000     1.861000000
C     1.306000000     0.662000000    -0.246000000
H     2.030000000     1.468000000    -0.339000000
C     0.731000000     0.091000000    -1.402000000
C     1.252000000     0.374000000    -2.813000000
O     2.215000000     1.149000000    -2.976000000
O     0.712000000     0.052000000    -3.826000000
O     5.138000000     4.032000000    -1.105000000
H     4.597000000     4.805000000    -0.945000000
H     5.176000000     3.586000000    -0.259000000
O     1.165000000     2.861000000    -5.488000000
H     0.930000000     3.577000000    -4.899000000
H     0.969000000     2.067000000    -4.991000000
O     0.249000000    -1.488000000     6.730000000
H    -0.463000000    -0.876000000     6.919000000
H     0.853000000    -1.386000000     7.465000000
O     6.020000000    -0.604000000    -0.275000000
H     5.493000000    -0.208000000    -0.969000000
H     5.791000000    -1.533000000    -0.302000000
O    -0.563000000    -4.437000000     0.424000000
H    -0.877000000    -5.332000000     0.293000000
H     0.089000000    -4.512000000     1.121000000
O     1.594000000    -0.114000000     4.480000000
H     1.315000000     0.338000000     5.276000000
H     1.844000000    -0.989000000     4.775000000
O    -3.522000000     3.473000000    -1.867000000
H    -3.152000000     3.032000000    -1.103000000
H    -3.110000000     4.336000000    -1.869000000
O     2.864000000     0.866000000    -7.726000000
H     3.619000000     1.441000000    -7.852000000
H     3.075000000     0.363000000    -6.939000000
O     0.232000000     3.421000000     3.811000000
H     0.746000000     4.063000000     3.322000000
H     0.733000000     2.609000000     3.740000000
O     0.820000000    -1.915000000    -6.291000000
H     0.198000000    -1.405000000    -5.772000000
H     1.675000000    -1.545000000    -6.073000000
O    -2.093000000    -2.175000000     3.594000000
H    -1.392000000    -2.715000000     3.960000000
H    -1.989000000    -2.259000000     2.646000000
O    -4.578000000     3.540000000     1.604000000
H    -3.973000000     3.078000000     1.022000000
H    -5.381000000     3.020000000     1.577000000
O    -4.023000000    -3.162000000     5.696000000
H    -3.506000000    -3.025000000     4.902000000
H    -4.736000000    -3.739000000     5.421000000
O     1.739000000    -2.949000000    -1.068000000
H     1.729000000    -2.219000000    -0.449000000
H     1.236000000    -3.639000000    -0.635000000
O    -4.349000000     3.847000000     5.044000000
H    -4.671000000     3.224000000     4.393000000
H    -3.472000000     3.532000000     5.263000000
O    -0.245000000     1.292000000    -8.134000000
H     0.650000000     1.061000000    -7.885000000
H    -0.173000000     1.586000000    -9.042000000
O     4.437000000     2.109000000    -4.958000000
H     4.637000000     2.866000000    -4.407000000
H     3.528000000     1.894000000    -4.749000000
O    -3.737000000     0.331000000     2.515000000
H    -4.637000000     0.006000000     2.535000000
H    -3.459000000     0.322000000     3.430000000
O     1.988000000     5.299000000     2.747000000
H     1.996000000     5.879000000     1.986000000
H     2.313000000     5.841000000     3.466000000
O    -5.739000000    -0.983000000    -3.697000000
H    -5.939000000    -1.861000000    -3.373000000
H    -5.088000000    -0.643000000    -3.083000000
O    -5.891000000    -0.963000000     2.679000000
H    -6.123000000    -0.578000000     3.524000000
H    -5.795000000    -1.898000000     2.861000000
O    -2.922000000    -0.057000000     5.131000000
H    -2.406000000    -0.201000000     5.925000000
H    -2.850000000    -0.879000000     4.647000000
O     1.473000000     3.852000000    -2.301000000
H     1.072000000     3.878000000    -1.433000000
H     1.832000000     2.967000000    -2.373000000
O     2.930000000    -0.764000000    -5.249000000
H     3.573000000    -0.848000000    -4.545000000
H     2.163000000    -0.375000000    -4.827000000
O    -2.683000000     2.084000000     0.298000000
H    -1.748000000     1.989000000     0.480000000
H    -3.091000000     1.343000000     0.746000000
O    -1.877000000     2.674000000     5.517000000
H    -0.949000000     2.676000000     5.283000000
H    -2.142000000     1.757000000     5.437000000
O     5.773000000    -0.636000000    -3.546000000
H     5.171000000    -1.258000000    -3.138000000
H     5.701000000     0.154000000    -3.009000000
O     6.067000000     1.472000000     1.891000000
H     5.407000000     2.143000000     1.717000000
H     5.651000000     0.652000000     1.625000000
O     4.845000000     1.413000000    -1.974000000
H     3.974000000     1.306000000    -2.357000000
H     4.982000000     2.361000000    -1.954000000
O    -3.946000000     2.843000000    -4.512000000
H    -3.361000000     2.086000000    -4.479000000
H    -4.060000000     3.097000000    -3.596000000
O    -2.607000000     0.475000000    -7.262000000
H    -1.793000000     0.837000000    -7.612000000
H    -2.395000000     0.237000000    -6.360000000
O    -1.118000000    -4.081000000    -6.105000000
H    -1.265000000    -4.365000000    -7.007000000
H    -0.349000000    -3.513000000    -6.155000000
O    -1.695000000     5.393000000     2.480000000
H    -1.450000000     4.597000000     2.952000000
H    -2.560000000     5.201000000     2.119000000
O     2.135000000     5.882000000    -3.915000000
H     2.249000000     5.298000000    -3.165000000
H     2.453000000     6.731000000    -3.608000000
O    -2.259000000    -2.799000000    -4.031000000
H    -2.279000000    -3.142000000    -3.138000000
H    -1.978000000    -3.542000000    -4.566000000
O     3.049000000     1.910000000     3.560000000
H     3.825000000     1.865000000     4.119000000
H     2.578000000     1.097000000     3.741000000
O    -4.603000000    -2.344000000    -5.709000000
H    -3.698000000    -2.281000000    -5.404000000
H    -5.092000000    -1.761000000    -5.129000000
O    -1.499000000    -0.246000000    -5.014000000
H    -1.693000000    -0.876000000    -4.319000000
H    -0.597000000     0.025000000    -4.847000000
O    -5.805000000    -0.362000000     5.291000000
H    -6.150000000     0.268000000     5.924000000
H    -4.854000000    -0.288000000     5.373000000
O    -4.355000000    -4.193000000     1.868000000
H    -3.773000000    -4.646000000     2.477000000
H    -3.968000000    -4.348000000     1.006000000
O    -2.228000000    -4.047000000    -1.626000000
H    -1.740000000    -4.139000000    -0.808000000
H    -2.907000000    -4.720000000    -1.577000000
O     3.944000000     3.307000000     1.422000000
H     3.512000000     2.835000000     2.135000000
H     3.345000000     4.024000000     1.213000000
O     1.555000000    -2.402000000     1.648000000
H     1.144000000    -1.580000000     1.378000000
H     1.535000000    -2.377000000     2.605000000
O     0.400000000    -4.364000000    -3.252000000
H     0.809000000    -3.591000000    -2.863000000
H    -0.334000000    -4.565000000    -2.671000000
O    -0.074000000     4.553000000    -0.102000000
H    -0.571000000     5.308000000    -0.416000000
H    -0.253000000     4.522000000     0.838000000
O     4.115000000    -2.508000000    -2.327000000
H     4.145000000    -2.981000000    -3.159000000
H     3.202000000    -2.573000000    -2.048000000
O    -5.627000000     0.875000000    -1.336000000
H    -4.798000000     1.197000000    -0.984000000
H    -6.028000000     1.642000000    -1.745000000
O     0.141000000    -3.311000000     4.371000000
H     0.963000000    -3.706000000     4.079000000
H     0.337000000    -2.967000000     5.243000000
