158
-3039.14115
C     0.989000000     0.047000000    -1.072000000
H     1.596000000     0.113000000    -1.972000000
C    -0.341000000     0.556000000    -1.091000000
H    -0.655000000     1.135000000    -1.956000000
C    -1.200000000     0.357000000    -0.047000000
H    -2.077000000     0.953000000    -0.078000000
C    -0.747000000    -0.230000000     1.157000000
H    -1.411000000    -0.281000000     2.017000000
C     0.572000000    -0.735000000     1.152000000
H     1.053000000    -1.285000000     1.957000000
C     1.472000000    -0.559000000     0.119000000
C     2.900000000    -1.198000000     0.092000000
O     3.546000000    -1.052000000    -0.963000000
O     3.159000000    -1.946000000     0.964000000
O    -0.594000000    -3.540000000     2.612000000
H    -1.242000000    -3.719000000     3.294000000
H    -0.411000000    -2.604000000     2.695000000
O    -8.508000000     0.538000000    -0.734000000
H    -7.579000000     0.770000000    -0.758000000
H    -8.952000000     1.354000000    -0.505000000
O     1.082000000     0.936000000    -5.004000000
H     1.864000000     1.427000000    -5.257000000
H     0.352000000     1.505000000    -5.248000000
O     0.932000000    -5.863000000     3.576000000
H     0.326000000    -6.495000000     3.190000000
H     0.565000000    -5.009000000     3.347000000
O     7.010000000    -3.854000000     3.312000000
H     6.326000000    -4.042000000     2.668000000
H     7.087000000    -2.900000000     3.308000000
O     2.649000000     3.834000000    -2.561000000
H     2.006000000     3.721000000    -1.860000000
H     3.147000000     3.016000000    -2.563000000
O    -0.307000000     2.520000000     3.008000000
H     0.206000000     1.715000000     3.080000000
H    -0.085000000     3.017000000     3.796000000
O     6.970000000     0.482000000     0.035000000
H     7.164000000     1.077000000    -0.689000000
H     7.729000000     0.552000000     0.613000000
O    -4.975000000     4.284000000    -3.834000000
H    -4.599000000     3.512000000    -4.258000000
H    -4.763000000     5.008000000    -4.425000000
O     3.403000000    -1.232000000     3.447000000
H     3.270000000    -1.932000000     4.086000000
H     3.392000000    -1.676000000     2.599000000
O    -7.431000000    -1.429000000     0.740000000
H    -7.998000000    -1.348000000     1.507000000
H    -7.847000000    -0.879000000     0.076000000
O    -4.612000000     3.843000000     1.787000000
H    -4.974000000     4.582000000     2.275000000
H    -4.760000000     4.067000000     0.868000000
O    -5.209000000     5.320000000    -0.938000000
H    -4.428000000     5.757000000    -0.598000000
H    -5.679000000     6.006000000    -1.412000000
O    -1.604000000    -2.772000000    -0.070000000
H    -1.412000000    -1.898000000     0.271000000
H    -1.326000000    -3.367000000     0.626000000
O    -1.401000000    -2.175000000     6.300000000
H    -1.294000000    -1.563000000     7.028000000
H    -0.846000000    -1.821000000     5.605000000
O     0.930000000    -1.626000000    -4.096000000
H     0.291000000    -1.692000000    -3.387000000
H     0.767000000    -0.768000000    -4.486000000
O    -3.857000000     3.039000000     4.914000000
H    -3.852000000     3.068000000     3.957000000
H    -4.782000000     3.100000000     5.151000000
O     0.462000000    -1.275000000     4.678000000
H     1.194000000    -1.704000000     5.122000000
H     0.868000000    -0.574000000     4.169000000
O     2.916000000     2.218000000     1.110000000
H     2.810000000     1.968000000     2.028000000
H     3.845000000     2.075000000     0.929000000
O    -3.225000000     0.702000000    -3.936000000
H    -2.827000000    -0.159000000    -3.812000000
H    -3.241000000     1.087000000    -3.059000000
O    -1.990000000     3.297000000     0.917000000
H    -1.332000000     3.034000000     1.561000000
H    -2.750000000     3.549000000     1.441000000
O    -0.571000000     5.583000000     0.573000000
H    -0.021000000     4.900000000     0.189000000
H    -1.398000000     5.142000000     0.771000000
O     2.187000000    -4.456000000     1.083000000
H     1.428000000    -4.292000000     1.644000000
H     2.615000000    -3.603000000     1.005000000
O     4.586000000     1.329000000    -2.112000000
H     4.057000000     0.753000000    -1.559000000
H     5.488000000     1.153000000    -1.847000000
O     4.095000000     1.823000000    -4.826000000
H     4.902000000     1.376000000    -5.082000000
H     3.841000000     1.406000000    -4.003000000
O    -2.358000000    -3.980000000     4.408000000
H    -2.045000000    -3.455000000     5.145000000
H    -3.312000000    -3.952000000     4.483000000
O     5.357000000     1.505000000     2.160000000
H     5.941000000     2.220000000     2.410000000
H     5.818000000     1.055000000     1.452000000
O    -4.818000000     0.432000000     0.347000000
H    -5.127000000     0.869000000     1.141000000
H    -4.893000000    -0.502000000     0.542000000
O     5.059000000    -6.406000000     0.930000000
H     5.467000000    -5.549000000     0.809000000
H     4.465000000    -6.287000000     1.671000000
O    -1.919000000    -1.749000000    -2.919000000
H    -1.794000000    -1.795000000    -1.971000000
H    -2.238000000    -2.619000000    -3.161000000
O     1.532000000    -5.779000000    -1.440000000
H     1.757000000    -5.347000000    -0.616000000
H     2.160000000    -5.429000000    -2.072000000
O     4.346000000    -5.331000000    -2.879000000
H     5.225000000    -5.211000000    -2.519000000
H     4.042000000    -4.444000000    -3.069000000
O     5.390000000    -0.154000000     5.069000000
H     5.385000000     0.797000000     4.952000000
H     4.643000000    -0.462000000     4.555000000
O    -1.356000000     1.975000000    -5.751000000
H    -1.981000000     2.269000000    -6.414000000
H    -1.901000000     1.613000000    -5.052000000
O     3.769000000    -5.691000000     3.696000000
H     3.629000000    -6.638000000     3.677000000
H     2.921000000    -5.319000000     3.451000000
O    -2.786000000     2.476000000    -1.727000000
H    -2.569000000     2.711000000    -0.825000000
H    -3.511000000     3.058000000    -1.958000000
O     2.566000000    -3.288000000     5.088000000
H     3.472000000    -3.417000000     5.369000000
H     2.041000000    -3.660000000     5.797000000
O     1.948000000     1.078000000     3.896000000
H     2.311000000     1.475000000     4.688000000
H     2.596000000     0.422000000     3.639000000
O     6.827000000    -4.248000000    -2.099000000
H     6.722000000    -3.360000000    -1.757000000
H     6.971000000    -4.128000000    -3.037000000
O    -5.953000000     1.395000000     2.589000000
H    -5.402000000     2.175000000     2.518000000
H    -6.482000000     1.547000000     3.372000000
O     5.426000000    -3.638000000     1.055000000
H     6.006000000    -3.283000000     0.381000000
H     4.653000000    -3.075000000     1.027000000
O    -5.741000000    -0.142000000    -2.166000000
H    -5.009000000     0.134000000    -1.614000000
H    -5.402000000    -0.891000000    -2.656000000
O    -4.605000000     2.094000000    -5.512000000
H    -4.189000000     1.487000000    -4.900000000
H    -4.978000000     1.532000000    -6.191000000
O     5.960000000    -1.971000000    -0.950000000
H     6.423000000    -1.147000000    -0.802000000
H     5.034000000    -1.746000000    -0.853000000
O     1.031000000     3.422000000    -0.394000000
H     1.628000000     2.854000000     0.093000000
H     0.194000000     2.958000000    -0.380000000
O    -5.420000000    -3.151000000    -0.471000000
H    -6.199000000    -3.103000000     0.083000000
H    -5.306000000    -2.260000000    -0.801000000
O     3.000000000    -2.841000000    -3.181000000
H     3.142000000    -2.224000000    -2.464000000
H     2.265000000    -2.473000000    -3.671000000
O    -6.488000000     2.695000000    -2.279000000
H    -6.245000000     1.791000000    -2.476000000
H    -5.947000000     3.223000000    -2.866000000
