158
-3049.26326
C     0.884000000     0.819000000    -0.892000000
H     1.445000000     1.387000000    -1.630000000
C    -0.509000000     0.685000000    -1.023000000
H    -1.059000000     1.045000000    -1.888000000
C    -1.214000000    -0.008000000    -0.076000000
H    -2.329000000    -0.019000000    -0.121000000
C    -0.567000000    -0.652000000     0.999000000
H    -1.057000000    -1.299000000     1.722000000
C     0.802000000    -0.609000000     1.057000000
H     1.414000000    -1.124000000     1.793000000
C     1.557000000     0.091000000     0.112000000
C     3.065000000     0.055000000     0.262000000
O     3.675000000     0.678000000    -0.546000000
O     3.706000000    -0.737000000     0.950000000
O    -4.210000000    -3.047000000     4.157000000
H    -3.491000000    -3.422000000     4.666000000
H    -4.284000000    -2.147000000     4.473000000
O    -7.263000000    -1.668000000     0.453000000
H    -6.355000000    -1.459000000     0.670000000
H    -7.765000000    -0.916000000     0.768000000
O     4.917000000     5.166000000     0.140000000
H     4.446000000     4.390000000    -0.162000000
H     4.326000000     5.576000000     0.771000000
O     4.609000000    -3.360000000     4.584000000
H     5.146000000    -3.607000000     3.831000000
H     4.874000000    -2.462000000     4.782000000
O     0.758000000    -4.247000000     4.067000000
H     0.167000000    -4.870000000     3.644000000
H     1.322000000    -3.934000000     3.359000000
O     7.589000000    -0.790000000     4.649000000
H     6.908000000    -0.937000000     3.992000000
H     7.816000000     0.135000000     4.555000000
O     3.669000000     2.759000000    -5.441000000
H     3.741000000     2.405000000    -4.554000000
H     3.793000000     2.002000000    -6.012000000
O    -0.095000000     2.087000000     2.006000000
H     0.816000000     2.375000000     1.938000000
H    -0.100000000     1.215000000     1.612000000
O     8.213000000    -0.245000000     1.630000000
H     7.709000000     0.283000000     1.011000000
H     8.945000000    -0.585000000     1.115000000
O     5.810000000    -1.658000000     2.230000000
H     5.019000000    -1.367000000     1.777000000
H     6.515000000    -1.143000000     1.836000000
O     4.627000000     1.732000000     3.051000000
H     4.229000000     0.871000000     3.179000000
H     5.428000000     1.706000000     3.575000000
O    -5.066000000    -1.059000000    -2.496000000
H    -5.023000000    -0.770000000    -3.407000000
H    -5.059000000    -2.015000000    -2.547000000
O    -4.405000000     1.266000000     1.193000000
H    -4.505000000     0.315000000     1.233000000
H    -4.827000000     1.586000000     1.990000000
O    -4.315000000    -0.442000000     5.051000000
H    -3.873000000     0.275000000     4.596000000
H    -5.224000000    -0.153000000     5.127000000
O     2.542000000    -3.260000000    -1.914000000
H     2.723000000    -2.908000000    -2.786000000
H     3.236000000    -2.899000000    -1.362000000
O     2.976000000    -1.985000000    -4.310000000
H     3.488000000    -1.233000000    -4.607000000
H     2.742000000    -2.448000000    -5.114000000
O    -0.970000000    -0.218000000     5.189000000
H    -1.143000000     0.397000000     4.476000000
H    -1.667000000    -0.052000000     5.823000000
O    -3.199000000     1.888000000     4.590000000
H    -2.438000000     2.225000000     5.063000000
H    -3.891000000     2.525000000     4.765000000
O     2.026000000     0.248000000     5.767000000
H     1.234000000    -0.130000000     5.386000000
H     1.981000000     0.016000000     6.694000000
O     3.223000000     3.198000000    -0.430000000
H     2.756000000     3.111000000     0.401000000
H     3.374000000     2.297000000    -0.716000000
O    -5.572000000     3.271000000    -3.626000000
H    -5.800000000     4.080000000    -3.167000000
H    -4.909000000     2.860000000    -3.072000000
O    -2.558000000     3.202000000     1.520000000
H    -1.657000000     2.962000000     1.738000000
H    -3.033000000     2.371000000     1.512000000
O     0.926000000    -3.879000000     0.133000000
H     1.307000000    -3.739000000    -0.734000000
H     1.635000000    -3.671000000     0.742000000
O    -1.620000000    -3.898000000     1.224000000
H    -1.389000000    -4.524000000     1.911000000
H    -0.796000000    -3.732000000     0.765000000
O     4.086000000     1.602000000    -3.223000000
H     3.904000000     1.480000000    -2.291000000
H     4.767000000     0.959000000    -3.420000000
O     6.494000000     0.166000000    -2.919000000
H     7.036000000    -0.623000000    -2.896000000
H     7.055000000     0.852000000    -2.557000000
O     7.432000000     3.912000000    -1.121000000
H     7.468000000     3.028000000    -1.488000000
H     6.543000000     3.992000000    -0.776000000
O    -1.298000000    -3.182000000     5.621000000
H    -0.653000000    -3.465000000     4.973000000
H    -1.142000000    -2.243000000     5.720000000
O     6.042000000     1.252000000     0.546000000
H     5.560000000     1.576000000     1.307000000
H     5.371000000     1.119000000    -0.124000000
O    -4.675000000    -1.512000000     1.332000000
H    -4.248000000    -1.866000000     0.552000000
H    -4.436000000    -2.120000000     2.032000000
O     6.072000000    -4.563000000     2.582000000
H     6.623000000    -5.085000000     1.999000000
H     5.829000000    -3.798000000     2.061000000
O    -0.191000000     5.151000000    -0.223000000
H    -0.358000000     6.067000000    -0.443000000
H    -0.181000000     5.132000000     0.734000000
O    -1.979000000    -2.235000000    -3.350000000
H    -2.113000000    -2.846000000    -2.626000000
H    -2.051000000    -1.369000000    -2.949000000
O    -7.168000000     0.726000000    -2.704000000
H    -6.434000000     0.155000000    -2.477000000
H    -6.785000000     1.393000000    -3.273000000
O    -4.966000000     4.623000000     1.480000000
H    -5.529000000     4.043000000     0.967000000
H    -4.123000000     4.171000000     1.512000000
O    -1.909000000     0.675000000    -4.585000000
H    -1.193000000     0.512000000    -5.199000000
H    -1.655000000     1.479000000    -4.130000000
O     5.002000000    -1.768000000    -1.316000000
H     4.478000000    -1.357000000    -0.628000000
H     5.117000000    -1.081000000    -1.972000000
O    -2.488000000     3.831000000    -1.785000000
H    -1.797000000     4.022000000    -1.151000000
H    -3.058000000     3.207000000    -1.337000000
O    -2.548000000     4.236000000    -4.511000000
H    -2.352000000     4.206000000    -3.575000000
H    -3.496000000     4.115000000    -4.562000000
O     2.472000000    -3.971000000     6.076000000
H     3.334000000    -3.931000000     5.662000000
H     1.889000000    -3.531000000     5.459000000
O     2.510000000     3.368000000     2.093000000
H     2.586000000     4.259000000     2.436000000
H     3.212000000     2.883000000     2.528000000
O    -6.476000000     1.761000000     2.808000000
H    -6.882000000     2.220000000     3.544000000
H    -7.186000000     1.246000000     2.426000000
O     2.965000000    -3.136000000     2.204000000
H     3.485000000    -3.408000000     2.960000000
H     3.301000000    -2.268000000     1.982000000
O    -4.470000000     1.711000000    -1.543000000
H    -4.801000000     1.828000000    -0.652000000
H    -4.464000000     0.763000000    -1.673000000
O     6.855000000    -3.523000000    -0.042000000
H     6.779000000    -4.044000000    -0.842000000
H     6.383000000    -2.713000000    -0.238000000
O     1.925000000     5.386000000    -1.872000000
H     2.435000000     4.727000000    -1.402000000
H     1.066000000     5.369000000    -1.450000000
O    -4.508000000    -0.247000000    -4.891000000
H    -3.644000000     0.163000000    -4.860000000
H    -4.922000000     0.124000000    -5.670000000
O    -3.004000000    -3.754000000    -1.184000000
H    -2.409000000    -3.839000000    -0.440000000
H    -3.732000000    -4.341000000    -0.977000000
