158
-3041.60340
C     0.972000000     0.785000000    -0.863000000
H     1.520000000     1.303000000    -1.645000000
C    -0.441000000     0.765000000    -0.954000000
H    -0.856000000     1.244000000    -1.838000000
C    -1.270000000     0.026000000    -0.123000000
H    -2.309000000    -0.250000000    -0.408000000
C    -0.634000000    -0.620000000     0.928000000
H    -1.195000000    -1.273000000     1.591000000
C     0.737000000    -0.584000000     1.132000000
H     1.200000000    -1.066000000     1.990000000
C     1.543000000     0.188000000     0.300000000
C     2.988000000     0.232000000     0.439000000
O     3.677000000     0.273000000    -0.606000000
O     3.486000000    -0.052000000     1.503000000
O    -5.605000000    -2.137000000     1.022000000
H    -5.298000000    -1.448000000     1.611000000
H    -4.832000000    -2.379000000     0.513000000
O     3.056000000     6.333000000    -0.129000000
H     3.050000000     5.382000000    -0.230000000
H     2.310000000     6.518000000     0.442000000
O     3.767000000    -2.320000000     5.778000000
H     3.521000000    -2.460000000     4.864000000
H     3.972000000    -1.387000000     5.831000000
O     2.532000000    -3.134000000     3.578000000
H     1.644000000    -3.445000000     3.403000000
H     2.974000000    -3.182000000     2.730000000
O    -3.241000000    -3.371000000     0.337000000
H    -2.285000000    -3.322000000     0.313000000
H    -3.510000000    -3.235000000    -0.571000000
O     8.540000000     0.646000000     3.475000000
H     7.613000000     0.521000000     3.274000000
H     8.771000000     1.467000000     3.041000000
O     1.040000000     1.609000000    -4.892000000
H     1.642000000     1.276000000    -4.227000000
H     1.472000000     1.416000000    -5.724000000
O     4.654000000     4.784000000    -2.600000000
H     4.715000000     4.269000000    -3.405000000
H     3.929000000     4.386000000    -2.117000000
O    -2.169000000     4.596000000    -2.278000000
H    -1.809000000     5.464000000    -2.094000000
H    -1.883000000     4.402000000    -3.170000000
O     5.839000000    -1.048000000     2.393000000
H     4.941000000    -0.719000000     2.343000000
H     6.101000000    -1.168000000     1.480000000
O     3.142000000     1.959000000     3.201000000
H     3.147000000     1.188000000     2.635000000
H     3.852000000     2.507000000     2.866000000
O    -3.898000000    -1.746000000    -4.401000000
H    -3.064000000    -1.933000000    -4.832000000
H    -3.838000000    -2.195000000    -3.558000000
O    -0.153000000     4.031000000    -4.390000000
H     0.407000000     3.293000000    -4.632000000
H     0.290000000     4.432000000    -3.642000000
O    -6.337000000    -4.735000000     1.121000000
H    -5.828000000    -3.956000000     0.896000000
H    -7.248000000    -4.450000000     1.065000000
O    -4.937000000     1.014000000     1.854000000
H    -5.728000000     1.138000000     2.377000000
H    -4.230000000     0.958000000     2.498000000
O     4.533000000    -3.873000000    -1.855000000
H     4.319000000    -3.810000000    -2.786000000
H     4.579000000    -2.964000000    -1.558000000
O     2.939000000    -2.407000000    -4.972000000
H     2.807000000    -1.545000000    -4.576000000
H     3.180000000    -2.220000000    -5.879000000
O    -0.923000000    -0.310000000     4.533000000
H    -0.698000000     0.393000000     3.923000000
H    -1.798000000    -0.081000000     4.848000000
O    -1.202000000     2.073000000     2.897000000
H    -1.235000000     2.347000000     1.980000000
H    -2.114000000     2.093000000     3.186000000
O     2.855000000     3.629000000    -0.639000000
H     2.266000000     3.741000000     0.107000000
H     3.540000000     3.043000000    -0.317000000
O    -2.266000000     3.337000000     0.364000000
H    -2.308000000     3.717000000    -0.514000000
H    -2.973000000     2.692000000     0.380000000
O     1.846000000    -4.132000000    -0.285000000
H     2.504000000    -4.792000000    -0.499000000
H     2.348000000    -3.401000000     0.076000000
O    -0.639000000    -2.924000000    -1.086000000
H    -0.855000000    -2.115000000    -0.623000000
H     0.257000000    -3.123000000    -0.817000000
O     3.134000000     0.284000000    -3.472000000
H     3.138000000     0.286000000    -2.514000000
H     4.056000000     0.370000000    -3.714000000
O     5.837000000     0.491000000    -3.743000000
H     6.331000000    -0.147000000    -3.228000000
H     6.254000000     1.331000000    -3.549000000
O    -0.727000000    -2.991000000     5.368000000
H    -1.529000000    -3.285000000     4.937000000
H    -0.676000000    -2.057000000     5.167000000
O     6.224000000     1.568000000    -0.126000000
H     6.900000000     0.933000000     0.112000000
H     5.400000000     1.097000000    -0.006000000
O    -4.821000000    -1.357000000     3.917000000
H    -5.594000000    -0.869000000     4.199000000
H    -4.427000000    -1.672000000     4.730000000
O     0.460000000    -4.566000000     2.040000000
H     0.728000000    -4.621000000     1.123000000
H     1.086000000    -5.120000000     2.506000000
O     6.836000000    -3.429000000     3.006000000
H     5.966000000    -3.789000000     3.177000000
H     6.716000000    -2.480000000     3.049000000
O    -5.701000000     0.490000000    -2.226000000
H    -5.008000000     0.180000000    -2.809000000
H    -6.276000000     1.008000000    -2.791000000
O    -1.204000000     5.061000000     2.139000000
H    -1.631000000     5.903000000     1.983000000
H    -1.877000000     4.411000000     1.936000000
O    -2.804000000    -3.683000000     3.212000000
H    -2.704000000    -3.927000000     2.292000000
H    -3.373000000    -2.914000000     3.195000000
O     7.101000000     3.966000000    -1.044000000
H     6.573000000     4.358000000    -1.740000000
H     6.671000000     3.130000000    -0.859000000
O     2.354000000     3.966000000     4.877000000
H     1.427000000     3.899000000     5.108000000
H     2.535000000     3.167000000     4.382000000
O    -1.071000000    -0.057000000    -4.641000000
H    -0.340000000     0.555000000    -4.735000000
H    -1.761000000     0.456000000    -4.222000000
O     5.594000000    -1.423000000    -0.420000000
H     4.875000000    -0.848000000    -0.684000000
H     6.386000000    -0.924000000    -0.621000000
O     4.068000000     0.497000000     5.446000000
H     3.612000000     1.158000000     4.923000000
H     3.868000000     0.730000000     6.352000000
O     4.994000000     3.642000000     2.013000000
H     4.961000000     4.546000000     1.700000000
H     5.478000000     3.172000000     1.335000000
O    -2.927000000     1.722000000    -3.710000000
H    -2.566000000     2.279000000    -3.020000000
H    -3.529000000     2.292000000    -4.188000000
O     1.137000000     3.622000000     1.534000000
H     0.670000000     4.315000000     2.001000000
H     1.415000000     3.016000000     2.221000000
O     3.713000000    -2.724000000     1.059000000
H     4.593000000    -2.858000000     0.707000000
H     3.539000000    -1.793000000     0.921000000
O    -7.381000000    -0.365000000    -0.167000000
H    -6.851000000    -0.964000000     0.358000000
H    -6.828000000    -0.150000000    -0.918000000
O    -4.734000000     2.338000000    -0.584000000
H    -4.860000000     1.769000000     0.175000000
H    -4.873000000     1.766000000    -1.339000000
O     1.031000000    -0.275000000     6.879000000
H     1.878000000     0.142000000     7.035000000
H     0.960000000    -0.324000000     5.926000000
O     1.575000000     5.021000000    -2.657000000
H     1.802000000     4.404000000    -1.961000000
H     1.122000000     5.734000000    -2.206000000
O    -3.282000000    -3.495000000    -2.352000000
H    -2.330000000    -3.592000000    -2.336000000
H    -3.612000000    -4.389000000    -2.445000000
O    -3.600000000     1.705000000     4.450000000
H    -4.069000000     2.525000000     4.598000000
H    -3.759000000     1.191000000     5.241000000
