158
-3040.60544
C     1.061000000     0.853000000    -0.456000000
H     1.951000000     1.456000000    -0.622000000
C     0.645000000     0.823000000     0.820000000
H     1.238000000     1.323000000     1.581000000
C    -0.320000000    -0.120000000     1.119000000
H    -0.699000000    -0.235000000     2.179000000
C    -0.984000000    -0.877000000     0.153000000
H    -1.791000000    -1.536000000     0.462000000
C    -0.662000000    -0.713000000    -1.172000000
H    -1.313000000    -1.143000000    -1.928000000
C     0.353000000     0.200000000    -1.495000000
C     0.791000000     0.394000000    -2.901000000
O     1.795000000     1.038000000    -3.117000000
O     0.365000000    -0.378000000    -3.751000000
O    -3.065000000    -3.519000000    -1.308000000
H    -3.111000000    -3.463000000    -2.262000000
H    -3.509000000    -2.730000000    -0.999000000
O     2.481000000     0.918000000    -5.663000000
H     2.086000000     1.087000000    -4.807000000
H     2.150000000     0.056000000    -5.914000000
O     1.181000000    -4.793000000     3.265000000
H     0.264000000    -4.633000000     3.041000000
H     1.341000000    -4.236000000     4.027000000
O    -2.007000000    -2.084000000    -6.990000000
H    -1.667000000    -1.880000000    -7.862000000
H    -1.517000000    -2.861000000    -6.719000000
O     1.612000000    -4.147000000     0.677000000
H     0.739000000    -4.407000000     0.384000000
H     1.775000000    -4.685000000     1.452000000
O     5.532000000     1.757000000     0.147000000
H     5.030000000     1.360000000     0.859000000
H     4.869000000     2.123000000    -0.439000000
O     3.038000000     4.633000000    -4.328000000
H     2.380000000     4.841000000    -4.991000000
H     3.853000000     4.542000000    -4.821000000
O    -6.096000000    -1.643000000    -2.651000000
H    -5.264000000    -1.459000000    -2.215000000
H    -6.673000000    -0.930000000    -2.375000000
O    -2.857000000     1.659000000     0.993000000
H    -2.341000000     2.095000000     1.670000000
H    -2.333000000     0.897000000     0.746000000
O    -0.211000000     2.816000000    -4.585000000
H     0.694000000     2.515000000    -4.499000000
H    -0.719000000     2.014000000    -4.710000000
O     4.569000000    -1.350000000    -0.535000000
H     3.969000000    -1.488000000    -1.267000000
H     4.000000000    -1.140000000     0.205000000
O     2.419000000     4.823000000    -1.645000000
H     1.507000000     4.532000000    -1.639000000
H     2.680000000     4.777000000    -2.565000000
O    -3.966000000     1.198000000    -4.196000000
H    -3.039000000     0.979000000    -4.101000000
H    -4.339000000     0.460000000    -4.677000000
O    -5.279000000    -4.343000000     0.994000000
H    -4.827000000    -5.163000000     0.794000000
H    -4.585000000    -3.752000000     1.287000000
O     2.387000000    -1.701000000     1.172000000
H     1.723000000    -1.075000000     0.885000000
H     2.012000000    -2.558000000     0.970000000
O    -3.156000000     4.247000000     0.591000000
H    -3.318000000     3.344000000     0.319000000
H    -2.215000000     4.279000000     0.768000000
O     5.086000000     0.718000000     2.992000000
H     5.785000000     1.370000000     2.951000000
H     4.805000000     0.725000000     3.907000000
O    -1.146000000    -3.547000000     2.224000000
H    -0.827000000    -3.649000000     1.327000000
H    -1.981000000    -3.089000000     2.130000000
O    -3.643000000    -2.399000000     2.296000000
H    -3.702000000    -2.507000000     3.246000000
H    -3.907000000    -1.493000000     2.141000000
O     6.684000000     0.199000000    -1.779000000
H     6.033000000    -0.453000000    -1.518000000
H     6.611000000     0.888000000    -1.119000000
O    -3.055000000    -2.585000000    -4.000000000
H    -3.447000000    -1.868000000    -4.498000000
H    -2.143000000    -2.609000000    -4.292000000
O     5.965000000     3.034000000    -3.187000000
H     5.659000000     2.562000000    -3.961000000
H     5.256000000     2.938000000    -2.552000000
O     5.059000000     1.929000000    -5.704000000
H     4.993000000     2.670000000    -6.306000000
H     4.207000000     1.497000000    -5.761000000
O     0.624000000     3.273000000     3.663000000
H     1.150000000     2.871000000     4.354000000
H     1.238000000     3.406000000     2.941000000
O     3.033000000    -1.683000000    -2.722000000
H     2.149000000    -1.475000000    -3.025000000
H     3.604000000    -1.126000000    -3.250000000
O     1.475000000     0.425000000     7.446000000
H     1.199000000    -0.285000000     6.867000000
H     0.786000000     1.085000000     7.360000000
O     2.479000000     3.052000000    -7.381000000
H     3.395000000     3.118000000    -7.650000000
H     2.448000000     2.275000000    -6.822000000
O    -1.520000000     0.447000000    -5.559000000
H    -0.947000000    -0.219000000    -5.178000000
H    -1.855000000     0.045000000    -6.360000000
O    -1.572000000     0.544000000     4.854000000
H    -0.976000000     1.102000000     5.354000000
H    -1.843000000     1.085000000     4.114000000
O    -3.114000000     2.582000000     6.673000000
H    -3.770000000     2.143000000     6.131000000
H    -3.037000000     3.458000000     6.295000000
O     4.526000000    -3.289000000     2.425000000
H     4.990000000    -2.880000000     3.156000000
H     3.995000000    -2.584000000     2.054000000
O    -1.852000000     2.626000000     3.276000000
H    -0.924000000     2.810000000     3.424000000
H    -2.291000000     3.459000000     3.446000000
O    -5.937000000    -0.968000000     3.118000000
H    -6.571000000    -1.659000000     3.310000000
H    -5.280000000    -1.046000000     3.809000000
O     1.705000000     0.493000000     4.570000000
H     1.312000000    -0.111000000     3.940000000
H     2.555000000     0.104000000     4.778000000
O    -5.763000000     0.699000000     1.019000000
H    -5.100000000     1.326000000     1.307000000
H    -6.053000000     0.269000000     1.824000000
O    -1.580000000     5.667000000     3.301000000
H    -1.835000000     6.419000000     2.767000000
H    -0.961000000     5.183000000     2.753000000
O     2.834000000     2.727000000     5.807000000
H     2.327000000     1.919000000     5.722000000
H     3.745000000     2.448000000     5.718000000
O    -0.194000000     3.999000000    -1.768000000
H     0.008000000     3.686000000    -2.650000000
H    -0.699000000     4.799000000    -1.908000000
O     3.620000000     2.454000000    -1.991000000
H     3.225000000     3.310000000    -1.825000000
H     2.953000000     1.973000000    -2.479000000
O     1.676000000    -1.757000000    -7.121000000
H     1.197000000    -1.739000000    -7.949000000
H     2.495000000    -2.206000000    -7.327000000
O     0.257000000    -2.032000000     6.221000000
H    -0.543000000    -1.568000000     5.975000000
H     0.147000000    -2.910000000     5.854000000
O    -0.648000000     2.208000000     7.039000000
H    -0.546000000     2.328000000     7.983000000
H    -1.595000000     2.178000000     6.902000000
O    -4.418000000    -1.010000000    -0.650000000
H    -3.783000000    -0.318000000    -0.835000000
H    -4.978000000    -0.644000000     0.035000000
O    -0.707000000    -4.484000000    -0.524000000
H    -0.477000000    -5.207000000    -1.107000000
H    -1.518000000    -4.131000000    -0.889000000
O    -0.487000000     4.456000000     1.065000000
H     0.256000000     5.042000000     1.208000000
H    -0.208000000     3.886000000     0.348000000
O     0.242000000    -2.769000000    -5.088000000
H     0.272000000    -2.065000000    -4.441000000
H     0.860000000    -2.498000000    -5.766000000
O    -0.919000000    -4.082000000     4.866000000
H    -1.307000000    -3.817000000     4.032000000
H    -1.552000000    -4.694000000     5.241000000
O    -3.911000000    -1.093000000     5.062000000
H    -4.253000000    -1.541000000     5.835000000
H    -3.138000000    -0.625000000     5.379000000
