158
-3014.24221
C     0.004000000    -0.536000000    -1.359000000
H    -0.132000000    -0.888000000    -2.378000000
C    -0.795000000    -0.990000000    -0.325000000
H    -1.622000000    -1.643000000    -0.594000000
C    -0.701000000    -0.475000000     0.997000000
H    -1.274000000    -0.877000000     1.803000000
C     0.279000000     0.494000000     1.196000000
H     0.475000000     1.026000000     2.124000000
C     1.078000000     0.931000000     0.170000000
H     1.868000000     1.649000000     0.375000000
C     0.960000000     0.452000000    -1.116000000
C     1.841000000     0.930000000    -2.310000000
O     2.873000000     1.583000000    -2.127000000
O     1.545000000     0.645000000    -3.476000000
O     6.198000000     3.081000000    -0.386000000
H     5.432000000     3.483000000    -0.796000000
H     6.100000000     3.274000000     0.546000000
O     5.371000000    -2.448000000    -5.058000000
H     5.685000000    -1.789000000    -4.439000000
H     4.455000000    -2.215000000    -5.211000000
O    -1.038000000     0.963000000    -3.884000000
H    -1.252000000     1.779000000    -3.431000000
H    -0.113000000     0.815000000    -3.687000000
O     1.955000000     3.260000000    -8.030000000
H     1.744000000     2.789000000    -7.224000000
H     2.903000000     3.164000000    -8.122000000
O    -1.311000000    -3.825000000     1.809000000
H    -2.179000000    -3.677000000     1.434000000
H    -1.071000000    -4.705000000     1.517000000
O    -4.304000000     3.455000000     1.026000000
H    -3.478000000     2.991000000     0.886000000
H    -4.581000000     3.720000000     0.149000000
O     3.107000000    -0.738000000    -7.777000000
H     2.978000000     0.208000000    -7.854000000
H     2.844000000    -0.943000000    -6.879000000
O     0.918000000     3.460000000     5.161000000
H     0.995000000     3.318000000     6.105000000
H     1.423000000     2.748000000     4.770000000
O     0.332000000    -1.466000000    -7.213000000
H     0.708000000    -2.035000000    -7.885000000
H     0.708000000    -1.784000000    -6.392000000
O    -0.986000000    -2.552000000     4.038000000
H    -0.098000000    -2.202000000     3.970000000
H    -1.037000000    -3.212000000     3.347000000
O     4.577000000     1.829000000    -7.031000000
H     5.195000000     2.560000000    -7.009000000
H     4.590000000     1.477000000    -6.141000000
O    -0.699000000     3.946000000    -2.405000000
H    -1.345000000     4.304000000    -1.797000000
H     0.137000000     4.038000000    -1.948000000
O     1.123000000    -2.618000000     1.312000000
H     0.702000000    -1.760000000     1.262000000
H     0.397000000    -3.237000000     1.389000000
O     4.606000000     2.025000000    -4.378000000
H     5.359000000     2.149000000    -3.800000000
H     3.877000000     1.845000000    -3.785000000
O    -3.333000000     1.241000000     3.462000000
H    -3.435000000     0.637000000     4.198000000
H    -2.628000000     1.830000000     3.731000000
O    -3.756000000    -3.141000000     0.830000000
H    -3.936000000    -2.457000000     1.475000000
H    -4.559000000    -3.197000000     0.312000000
O    -5.736000000    -2.517000000     4.145000000
H    -5.487000000    -1.976000000     4.894000000
H    -5.298000000    -3.355000000     4.299000000
O    -2.679000000    -0.595000000     5.527000000
H    -2.292000000    -0.284000000     6.345000000
H    -1.953000000    -1.008000000     5.060000000
O    -0.967000000     0.896000000     7.346000000
H    -0.141000000     0.431000000     7.476000000
H    -1.171000000     1.269000000     8.204000000
O     2.058000000     4.072000000    -1.479000000
H     2.346000000     4.166000000    -0.571000000
H     2.369000000     3.206000000    -1.741000000
O     2.803000000    -1.479000000    -5.190000000
H     2.147000000    -1.973000000    -4.698000000
H     2.688000000    -0.574000000    -4.900000000
O     4.970000000     5.579000000    -1.745000000
H     4.290000000     5.127000000    -2.245000000
H     5.016000000     6.451000000    -2.136000000
O    -1.999000000     2.274000000     0.044000000
H    -1.494000000     3.068000000     0.219000000
H    -1.418000000     1.559000000     0.307000000
O    -0.462000000     4.578000000     1.020000000
H    -0.341000000     4.652000000     1.967000000
H    -1.060000000     5.292000000     0.798000000
O    -1.880000000     2.955000000     5.187000000
H    -0.929000000     3.060000000     5.217000000
H    -2.052000000     2.176000000     5.717000000
O     6.668000000    -0.415000000    -3.152000000
H     7.480000000    -0.791000000    -2.812000000
H     6.201000000    -0.109000000    -2.374000000
O     5.139000000     1.474000000     3.184000000
H     5.511000000     2.276000000     2.818000000
H     5.603000000     0.768000000     2.732000000
O     5.162000000     0.498000000    -1.045000000
H     4.365000000     0.851000000    -1.439000000
H     5.653000000     1.270000000    -0.764000000
O    -4.037000000     1.044000000    -1.640000000
H    -3.584000000     1.314000000    -0.841000000
H    -4.684000000     1.733000000    -1.793000000
O    -2.392000000    -1.474000000    -6.537000000
H    -1.453000000    -1.584000000    -6.684000000
H    -2.452000000    -1.057000000    -5.677000000
O     0.232000000     5.506000000     3.447000000
H    -0.401000000     5.991000000     3.976000000
H     0.580000000     4.840000000     4.041000000
O     3.298000000     4.769000000    -4.377000000
H     3.763000000     3.999000000    -4.704000000
H     2.564000000     4.411000000    -3.878000000
O     0.573000000    -3.399000000    -4.513000000
H     0.805000000    -4.251000000    -4.880000000
H     0.370000000    -3.580000000    -3.595000000
O     2.963000000     1.629000000     4.546000000
H     3.848000000     1.517000000     4.197000000
H     2.811000000     0.841000000     5.069000000
O    -4.071000000    -3.177000000    -3.899000000
H    -3.801000000    -2.259000000    -3.934000000
H    -3.672000000    -3.513000000    -3.097000000
O    -3.049000000    -0.771000000    -3.735000000
H    -3.504000000    -0.458000000    -2.954000000
H    -2.211000000    -0.310000000    -3.725000000
O     6.685000000     2.900000000    -3.084000000
H     7.612000000     3.082000000    -3.238000000
H     6.579000000     2.979000000    -2.136000000
O    -4.949000000    -1.843000000     6.697000000
H    -5.365000000    -0.982000000     6.737000000
H    -4.050000000    -1.663000000     6.424000000
O    -3.289000000    -4.604000000     4.383000000
H    -3.126000000    -5.312000000     3.759000000
H    -2.705000000    -3.899000000     4.102000000
O    -2.764000000    -4.585000000    -1.546000000
H    -3.200000000    -3.899000000    -1.041000000
H    -3.369000000    -5.326000000    -1.516000000
O    -6.376000000    -0.427000000    -0.999000000
H    -6.302000000     0.019000000    -0.155000000
H    -5.688000000    -0.035000000    -1.537000000
O     1.273000000     6.928000000    -0.870000000
H     1.386000000     6.008000000    -0.630000000
H     0.344000000     7.102000000    -0.718000000
O     0.841000000     1.405000000    -5.897000000
H    -0.089000000     1.178000000    -5.918000000
H     1.141000000     1.106000000    -5.038000000
O     3.734000000    -2.704000000     1.790000000
H     2.818000000    -2.524000000     1.577000000
H     3.765000000    -2.685000000     2.746000000
O     1.211000000    -3.884000000    -1.452000000
H     0.504000000    -4.113000000    -0.848000000
H     1.626000000    -3.118000000    -1.055000000
O     2.414000000     4.299000000     1.175000000
H     1.531000000     4.640000000     1.033000000
H     2.327000000     3.712000000     1.925000000
O     4.926000000    -2.060000000    -0.803000000
H     4.973000000    -1.106000000    -0.854000000
H     4.603000000    -2.237000000     0.080000000
O    -5.512000000     0.816000000     1.386000000
H    -4.781000000     0.771000000     2.002000000
H    -5.493000000     1.714000000     1.055000000
