158
-3070.24750
C     1.337000000     0.478000000    -0.363000000
H     2.271000000     0.947000000    -0.661000000
C     0.649000000     0.898000000     0.740000000
H     1.134000000     1.674000000     1.326000000
C    -0.575000000     0.326000000     0.985000000
H    -1.080000000     0.760000000     1.877000000
C    -1.132000000    -0.733000000     0.296000000
H    -2.113000000    -1.177000000     0.448000000
C    -0.325000000    -1.166000000    -0.777000000
H    -0.722000000    -1.863000000    -1.511000000
C     0.853000000    -0.528000000    -1.172000000
C     1.492000000    -0.768000000    -2.489000000
O     2.658000000    -0.389000000    -2.713000000
O     0.965000000    -1.591000000    -3.190000000
O    -1.509000000    -5.306000000    -0.230000000
H    -1.866000000    -6.141000000    -0.532000000
H    -1.373000000    -4.799000000    -1.030000000
O     1.228000000    -1.152000000    -5.800000000
H     1.411000000    -1.125000000    -4.861000000
H     1.716000000    -1.911000000    -6.117000000
O     4.551000000     2.290000000     1.579000000
H     4.169000000     1.421000000     1.698000000
H     5.415000000     2.230000000     1.988000000
O     6.678000000    -0.379000000     0.962000000
H     5.905000000     0.040000000     0.584000000
H     6.536000000    -1.315000000     0.818000000
O    -1.410000000     1.624000000    -2.114000000
H    -1.151000000     0.927000000    -1.511000000
H    -1.112000000     1.322000000    -2.972000000
O     4.891000000    -0.080000000    -1.130000000
H     5.335000000    -0.842000000    -1.502000000
H     4.013000000    -0.103000000    -1.510000000
O     6.189000000    -2.239000000    -2.202000000
H     6.327000000    -3.162000000    -1.987000000
H     6.287000000    -2.198000000    -3.153000000
O     0.759000000     3.565000000    -1.728000000
H     0.012000000     2.978000000    -1.612000000
H     0.627000000     4.252000000    -1.075000000
O    -3.524000000    -0.246000000    -3.618000000
H    -2.631000000    -0.556000000    -3.769000000
H    -4.073000000    -1.018000000    -3.757000000
O    -2.515000000    -5.772000000     2.257000000
H    -2.235000000    -5.412000000     1.415000000
H    -1.946000000    -5.349000000     2.900000000
O     4.651000000     2.680000000    -1.198000000
H     4.460000000     1.909000000    -1.731000000
H     4.614000000     2.363000000    -0.296000000
O     0.852000000    -2.190000000     2.424000000
H     0.737000000    -2.954000000     1.859000000
H     0.357000000    -1.495000000     1.991000000
O    -2.528000000     4.152000000     2.707000000
H    -1.743000000     4.692000000     2.797000000
H    -2.561000000     3.931000000     1.776000000
O    -2.293000000     3.352000000    -0.032000000
H    -2.030000000     2.627000000    -0.599000000
H    -1.990000000     4.136000000    -0.489000000
O     3.865000000    -0.136000000     2.376000000
H     3.512000000    -0.449000000     3.209000000
H     3.842000000    -0.903000000     1.803000000
O    -1.789000000    -6.810000000    -3.307000000
H    -1.989000000    -5.875000000    -3.344000000
H    -1.097000000    -6.934000000    -3.957000000
O    -5.276000000    -2.525000000     3.774000000
H    -6.017000000    -2.503000000     4.379000000
H    -5.392000000    -1.750000000     3.225000000
O     7.412000000     0.869000000    -2.404000000
H     6.725000000     0.748000000    -1.749000000
H     6.939000000     1.072000000    -3.211000000
O    -1.798000000    -4.107000000    -3.078000000
H    -2.101000000    -3.284000000    -3.461000000
H    -0.845000000    -4.073000000    -3.160000000
O     2.663000000     3.971000000    -5.542000000
H     3.054000000     4.667000000    -5.013000000
H     2.497000000     3.262000000    -4.920000000
O     4.778000000     0.127000000    -4.533000000
H     4.596000000     1.045000000    -4.735000000
H     4.122000000    -0.109000000    -3.878000000
O     2.297000000     2.336000000     3.470000000
H     2.535000000     2.068000000     4.358000000
H     2.518000000     1.581000000     2.925000000
O     3.760000000    -5.422000000    -2.589000000
H     3.854000000    -5.496000000    -1.639000000
H     3.977000000    -4.509000000    -2.781000000
O    -0.642000000     5.339000000     5.384000000
H    -1.555000000     5.373000000     5.668000000
H    -0.674000000     5.539000000     4.448000000
O    -1.112000000    -2.188000000    -4.615000000
H    -0.326000000    -1.996000000    -4.103000000
H    -0.916000000    -1.853000000    -5.489000000
O    -0.340000000    -2.700000000     6.953000000
H     0.503000000    -3.148000000     6.878000000
H    -0.288000000    -1.986000000     6.317000000
O     6.078000000    -1.837000000    -6.044000000
H     6.503000000    -2.400000000    -5.398000000
H     5.433000000    -1.339000000    -5.541000000
O    -0.346000000     2.627000000     4.831000000
H    -0.685000000     3.471000000     5.128000000
H     0.473000000     2.840000000     4.384000000
O     3.286000000    -2.935000000    -3.481000000
H     2.950000000    -2.089000000    -3.187000000
H     3.416000000    -2.828000000    -4.423000000
O     3.452000000    -2.856000000     1.477000000
H     3.498000000    -3.176000000     2.378000000
H     2.539000000    -2.592000000     1.364000000
O    -0.432000000     5.693000000     2.374000000
H     0.417000000     5.351000000     2.092000000
H    -0.279000000     6.629000000     2.510000000
O    -5.313000000     0.330000000     2.200000000
H    -4.876000000     0.244000000     1.353000000
H    -4.889000000     1.081000000     2.614000000
O    -0.335000000    -0.205000000     4.893000000
H    -1.196000000    -0.616000000     4.969000000
H    -0.520000000     0.685000000     4.594000000
O    -4.592000000     2.676000000     3.564000000
H    -4.441000000     2.713000000     4.509000000
H    -3.858000000     3.160000000     3.186000000
O    -4.732000000    -0.100000000    -0.476000000
H    -5.522000000     0.225000000    -0.907000000
H    -4.012000000     0.294000000    -0.968000000
O    -4.818000000     5.515000000     1.613000000
H    -4.279000000     5.022000000     2.232000000
H    -4.856000000     6.398000000     1.980000000
O     2.115000000     4.460000000     1.561000000
H     2.267000000     3.913000000     2.331000000
H     2.984000000     4.777000000     1.316000000
O    -0.477000000     1.127000000    -4.473000000
H    -0.034000000     0.461000000    -4.999000000
H    -0.139000000     1.959000000    -4.806000000
O     0.531000000    -3.881000000    -7.075000000
H     0.628000000    -4.454000000    -7.835000000
H     0.161000000    -3.073000000    -7.430000000
O     2.315000000     2.114000000    -3.604000000
H     1.646000000     2.533000000    -3.063000000
H     2.421000000     1.242000000    -3.223000000
O     2.946000000    -3.098000000    -6.519000000
H     3.462000000    -3.116000000    -7.325000000
H     2.221000000    -3.700000000    -6.685000000
O    -2.874000000    -1.391000000     5.014000000
H    -3.041000000    -2.062000000     4.352000000
H    -3.722000000    -0.969000000     5.148000000
O     2.293000000    -0.812000000     4.558000000
H     1.828000000    -1.323000000     3.896000000
H     1.614000000    -0.271000000     4.962000000
O    -4.884000000    -2.806000000    -0.887000000
H    -5.213000000    -3.334000000    -0.160000000
H    -4.770000000    -1.931000000    -0.516000000
O    -6.522000000     3.082000000     1.298000000
H    -6.074000000     3.918000000     1.429000000
H    -6.134000000     2.498000000     1.950000000
O     0.940000000    -4.443000000     0.309000000
H     1.268000000    -4.359000000    -0.586000000
H     0.049000000    -4.777000000     0.208000000
O     1.032000000    -4.148000000    -2.545000000
H     1.122000000    -3.271000000    -2.919000000
H     1.583000000    -4.701000000    -3.098000000
O     3.620000000     4.816000000    -3.025000000
H     3.557000000     4.319000000    -2.210000000
H     4.253000000     4.330000000    -3.554000000
