158
-3038.33142
C     1.343000000     0.608000000    -0.053000000
H     2.331000000     1.057000000     0.006000000
C     0.426000000     0.883000000     0.950000000
H     0.546000000     1.754000000     1.589000000
C    -0.807000000     0.153000000     0.952000000
H    -1.568000000     0.247000000     1.730000000
C    -1.051000000    -0.831000000    -0.007000000
H    -1.983000000    -1.391000000    -0.016000000
C    -0.095000000    -1.068000000    -1.060000000
H    -0.187000000    -1.818000000    -1.841000000
C     1.058000000    -0.327000000    -1.044000000
C     2.031000000    -0.612000000    -2.196000000
O     3.019000000     0.130000000    -2.304000000
O     1.914000000    -1.543000000    -2.969000000
O    -1.535000000    -4.841000000    -1.560000000
H    -1.808000000    -5.110000000    -2.437000000
H    -2.162000000    -4.162000000    -1.312000000
O     3.494000000     2.849000000    -3.353000000
H     3.327000000     2.007000000    -2.929000000
H     4.155000000     2.656000000    -4.018000000
O     4.576000000    -5.644000000    -2.786000000
H     4.117000000    -5.960000000    -2.008000000
H     4.523000000    -4.690000000    -2.724000000
O     1.571000000     4.407000000    -4.441000000
H     2.412000000     4.210000000    -4.028000000
H     0.939000000     3.864000000    -3.970000000
O    -0.064000000    -1.284000000    -4.945000000
H     0.582000000    -1.425000000    -4.253000000
H    -0.407000000    -2.157000000    -5.134000000
O    -1.730000000    -5.558000000    -4.156000000
H    -0.912000000    -5.197000000    -4.498000000
H    -2.073000000    -6.093000000    -4.872000000
O     0.241000000    -5.710000000     0.452000000
H    -0.376000000    -5.343000000    -0.181000000
H    -0.165000000    -5.548000000     1.304000000
O     1.516000000     4.066000000    -0.779000000
H     1.100000000     3.416000000    -1.345000000
H     0.832000000     4.716000000    -0.617000000
O     1.960000000    -0.610000000    -7.058000000
H     1.408000000    -0.752000000    -6.289000000
H     2.704000000    -1.199000000    -6.932000000
O    -1.682000000     1.032000000    -4.830000000
H    -2.472000000     0.590000000    -5.142000000
H    -1.080000000     0.320000000    -4.612000000
O     0.993000000    -2.193000000     2.186000000
H     0.262000000    -1.735000000     1.772000000
H     1.770000000    -1.713000000     1.900000000
O     6.127000000     2.043000000    -5.019000000
H     6.694000000     1.272000000    -5.031000000
H     5.512000000     1.899000000    -5.739000000
O     4.188000000     5.007000000    -1.528000000
H     4.610000000     4.216000000    -1.862000000
H     3.288000000     4.739000000    -1.343000000
O     2.447000000    -5.948000000    -0.970000000
H     1.769000000    -5.833000000    -0.304000000
H     2.097000000    -5.510000000    -1.746000000
O     4.714000000     0.091000000    -0.536000000
H     4.239000000    -0.023000000     0.288000000
H     4.029000000     0.122000000    -1.204000000
O     0.754000000     1.673000000     5.785000000
H     1.243000000     1.936000000     6.565000000
H     1.015000000     2.304000000     5.115000000
O    -2.175000000     1.949000000    -1.221000000
H    -2.853000000     1.445000000    -1.671000000
H    -1.874000000     1.372000000    -0.519000000
O    -0.918000000     5.441000000    -0.256000000
H    -1.100000000     6.350000000    -0.496000000
H    -0.641000000     5.486000000     0.659000000
O    -0.180000000    -4.758000000     2.970000000
H    -1.060000000    -4.573000000     3.300000000
H     0.182000000    -3.897000000     2.760000000
O    -1.412000000     4.219000000     6.564000000
H    -1.095000000     4.078000000     7.456000000
H    -2.123000000     3.586000000     6.460000000
O    -4.541000000     0.435000000     2.177000000
H    -5.001000000     1.108000000     1.674000000
H    -4.265000000    -0.206000000     1.522000000
O    -2.880000000    -3.156000000     4.223000000
H    -3.712000000    -2.693000000     4.121000000
H    -3.117000000    -4.083000000     4.188000000
O     4.913000000     2.356000000     3.042000000
H     5.588000000     2.082000000     2.421000000
H     4.399000000     3.008000000     2.564000000
O     3.650000000     4.323000000     1.391000000
H     3.172000000     5.048000000     1.795000000
H     3.038000000     3.958000000     0.753000000
O    -1.083000000     5.568000000     2.562000000
H    -0.297000000     5.643000000     3.103000000
H    -1.796000000     5.451000000     3.190000000
O     7.473000000    -1.095000000    -5.163000000
H     7.748000000    -2.008000000    -5.078000000
H     6.871000000    -0.956000000    -4.432000000
O     1.182000000     3.640000000     3.650000000
H     2.083000000     3.446000000     3.910000000
H     1.014000000     4.514000000     4.002000000
O     1.588000000    -4.289000000    -3.344000000
H     0.901000000    -4.199000000    -4.005000000
H     1.925000000    -3.401000000    -3.226000000
O     5.858000000    -0.968000000    -2.972000000
H     5.133000000    -0.458000000    -2.613000000
H     6.631000000    -0.647000000    -2.507000000
O     3.403000000    -1.367000000     1.688000000
H     4.128000000    -1.971000000     1.527000000
H     3.541000000    -1.061000000     2.585000000
O    -4.722000000     0.925000000    -1.886000000
H    -5.360000000     1.522000000    -2.278000000
H    -5.250000000     0.205000000    -1.541000000
O    -0.002000000    -3.912000000    -5.671000000
H     0.727000000    -3.790000000    -6.279000000
H    -0.774000000    -3.979000000    -6.233000000
O    -3.512000000     1.881000000     7.094000000
H    -4.319000000     1.667000000     7.561000000
H    -3.772000000     1.929000000     6.174000000
O    -1.216000000    -0.152000000     5.382000000
H    -0.657000000    -0.910000000     5.209000000
H    -0.626000000     0.499000000     5.763000000
O    -3.475000000     4.482000000    -0.344000000
H    -3.239000000     3.604000000    -0.643000000
H    -2.654000000     4.974000000    -0.378000000
O    -1.652000000     2.753000000     3.650000000
H    -1.406000000     1.945000000     3.199000000
H    -0.846000000     3.270000000     3.671000000
O    -4.336000000     2.005000000     4.572000000
H    -4.560000000     1.282000000     3.985000000
H    -3.578000000     2.421000000     4.161000000
O    -0.913000000     3.046000000    -3.177000000
H    -1.216000000     2.391000000    -3.806000000
H    -1.211000000     2.719000000    -2.328000000
O     6.587000000     2.147000000    -0.227000000
H     5.805000000     1.600000000    -0.307000000
H     6.786000000     2.413000000    -1.125000000
O     2.710000000    -3.503000000    -6.660000000
H     2.935000000    -2.972000000    -5.896000000
H     3.421000000    -3.343000000    -7.281000000
O     4.394000000    -3.040000000    -1.897000000
H     4.936000000    -2.297000000    -2.163000000
H     3.511000000    -2.677000000    -1.823000000
O    -5.665000000     2.837000000     0.913000000
H    -5.102000000     3.442000000     0.430000000
H    -5.854000000     3.290000000     1.735000000
O     0.897000000    -2.226000000     4.852000000
H     1.720000000    -1.850000000     5.166000000
H     1.063000000    -2.429000000     3.932000000
O     5.667000000    -2.945000000     0.675000000
H     6.443000000    -2.393000000     0.580000000
H     5.137000000    -2.749000000    -0.097000000
O    -5.185000000    -1.711000000     3.699000000
H    -5.053000000    -0.993000000     3.080000000
H    -5.713000000    -1.329000000     4.400000000
O    -5.265000000    -4.116000000    -0.954000000
H    -5.622000000    -4.574000000    -0.193000000
H    -5.587000000    -3.219000000    -0.866000000
O     3.788000000    -1.843000000    -4.744000000
H     3.109000000    -1.609000000    -4.111000000
H     4.611000000    -1.710000000    -4.273000000
O    -3.201000000    -1.188000000     6.974000000
H    -3.029000000    -0.249000000     6.906000000
H    -2.700000000    -1.576000000     6.256000000
