158
-3035.97041
C     1.434000000    -0.453000000    -0.295000000
H     2.484000000    -0.654000000    -0.494000000
C     1.046000000     0.513000000     0.638000000
H     1.764000000     1.080000000     1.224000000
C    -0.278000000     0.844000000     0.834000000
H    -0.644000000     1.598000000     1.565000000
C    -1.249000000     0.203000000     0.066000000
H    -2.292000000     0.456000000     0.239000000
C    -0.925000000    -0.837000000    -0.801000000
H    -1.713000000    -1.378000000    -1.319000000
C     0.433000000    -1.141000000    -1.058000000
C     0.788000000    -2.105000000    -2.151000000
O     1.883000000    -2.659000000    -1.972000000
O     0.021000000    -2.275000000    -3.126000000
O     1.490000000    -3.398000000    -5.061000000
H     1.836000000    -2.730000000    -5.653000000
H     0.934000000    -2.913000000    -4.451000000
O     6.902000000     1.614000000     0.595000000
H     6.017000000     1.256000000     0.673000000
H     7.333000000     1.365000000     1.413000000
O    -2.982000000    -3.632000000     2.768000000
H    -2.198000000    -3.096000000     2.643000000
H    -3.232000000    -3.483000000     3.680000000
O    -2.399000000     4.174000000    -1.862000000
H    -2.226000000     5.047000000    -2.213000000
H    -3.041000000     3.797000000    -2.464000000
O     3.365000000    -3.586000000     0.329000000
H     3.139000000    -4.509000000     0.443000000
H     2.795000000    -3.286000000    -0.379000000
O     3.421000000    -6.409000000     0.177000000
H     2.678000000    -6.106000000    -0.345000000
H     3.149000000    -7.265000000     0.508000000
O     2.068000000     1.819000000    -3.361000000
H     1.311000000     2.081000000    -2.838000000
H     1.791000000     1.010000000    -3.793000000
O    -5.403000000    -2.818000000     1.385000000
H    -5.326000000    -1.881000000     1.565000000
H    -4.596000000    -3.197000000     1.736000000
O     6.247000000    -2.998000000    -4.364000000
H     5.315000000    -2.859000000    -4.192000000
H     6.693000000    -2.398000000    -3.766000000
O     2.108000000    -3.324000000     3.663000000
H     1.537000000    -2.983000000     2.975000000
H     2.765000000    -3.839000000     3.194000000
O    -0.863000000     2.304000000    -5.966000000
H    -0.972000000     1.435000000    -5.581000000
H    -0.087000000     2.224000000    -6.521000000
O     3.538000000     2.941000000     1.279000000
H     3.666000000     2.051000000     1.608000000
H     3.819000000     2.902000000     0.365000000
O    -0.700000000    -1.967000000     2.355000000
H    -0.910000000    -1.335000000     3.042000000
H    -0.517000000    -1.431000000     1.584000000
O     0.192000000     6.474000000     3.023000000
H    -0.583000000     6.895000000     3.395000000
H    -0.059000000     6.263000000     2.124000000
O    -4.717000000     4.946000000    -0.118000000
H    -3.811000000     4.657000000    -0.231000000
H    -4.770000000     5.765000000    -0.610000000
O     6.268000000    -0.299000000    -3.786000000
H     5.430000000    -0.647000000    -3.482000000
H     6.119000000    -0.087000000    -4.707000000
O    -1.197000000     7.507000000     0.682000000
H    -1.844000000     6.893000000     1.029000000
H    -1.629000000     8.360000000     0.726000000
O    -0.327000000    -2.941000000     5.717000000
H    -0.150000000    -2.825000000     6.651000000
H    -0.680000000    -2.098000000     5.434000000
O    -1.201000000     0.304000000    -4.046000000
H    -0.885000000    -0.482000000    -3.599000000
H    -1.141000000     0.995000000    -3.386000000
O     4.519000000     2.744000000     4.182000000
H     3.943000000     1.980000000     4.213000000
H     4.001000000     3.416000000     3.738000000
O     1.727000000    -0.227000000    -5.200000000
H     1.731000000    -0.004000000    -6.131000000
H     0.872000000    -0.631000000    -5.054000000
O     0.283000000    -7.007000000    -4.469000000
H    -0.038000000    -7.059000000    -3.569000000
H    -0.285000000    -6.361000000    -4.889000000
O     4.658000000     0.453000000     1.568000000
H     4.642000000     0.246000000     2.503000000
H     4.768000000    -0.395000000     1.137000000
O     1.486000000     1.212000000     6.466000000
H     1.758000000     0.340000000     6.181000000
H     0.798000000     1.462000000     5.849000000
O    -4.259000000     2.803000000     4.344000000
H    -4.853000000     3.180000000     3.694000000
H    -3.397000000     3.146000000     4.108000000
O     1.881000000     4.700000000     5.210000000
H     1.605000000     5.289000000     4.509000000
H     1.315000000     3.934000000     5.117000000
O    -4.086000000    -0.895000000    -4.330000000
H    -3.428000000    -0.274000000    -4.642000000
H    -3.654000000    -1.748000000    -4.382000000
O     2.495000000     6.839000000     0.869000000
H     2.658000000     6.639000000    -0.053000000
H     1.792000000     6.242000000     1.123000000
O    -2.009000000     4.240000000     3.441000000
H    -1.712000000     4.355000000     2.538000000
H    -1.858000000     5.090000000     3.854000000
O     1.720000000    -5.352000000    -1.938000000
H     0.788000000    -5.567000000    -1.974000000
H     1.764000000    -4.433000000    -2.203000000
O    -1.394000000     4.371000000     0.776000000
H    -1.639000000     4.333000000    -0.148000000
H    -0.438000000     4.322000000     0.774000000
O     4.485000000    -0.528000000     4.076000000
H     5.117000000    -1.247000000     4.073000000
H     3.689000000    -0.910000000     4.445000000
O    -1.018000000    -0.061000000     4.429000000
H    -1.964000000    -0.026000000     4.567000000
H    -0.709000000     0.813000000     4.666000000
O    -4.398000000    -1.182000000    -1.163000000
H    -3.850000000    -1.967000000    -1.164000000
H    -4.947000000    -1.272000000    -1.942000000
O     4.372000000     2.415000000    -1.834000000
H     5.202000000     2.290000000    -2.293000000
H     3.703000000     2.217000000    -2.489000000
O     3.935000000    -1.477000000    -3.654000000
H     3.174000000    -1.823000000    -3.188000000
H     3.565000000    -0.997000000    -4.394000000
O     3.212000000    -5.671000000    -4.359000000
H     2.621000000    -6.016000000    -3.690000000
H     3.104000000    -4.721000000    -4.308000000
O    -5.009000000     1.438000000    -1.882000000
H    -5.228000000     1.747000000    -1.003000000
H    -4.609000000     0.580000000    -1.742000000
O    -0.117000000     2.401000000    -1.960000000
H    -0.883000000     2.954000000    -1.803000000
H    -0.061000000     1.844000000    -1.184000000
O    -3.506000000    -5.011000000    -5.822000000
H    -2.716000000    -5.062000000    -5.283000000
H    -4.026000000    -5.769000000    -5.557000000
O     5.667000000    -1.924000000     0.424000000
H     4.836000000    -2.397000000     0.373000000
H     6.179000000    -2.260000000    -0.312000000
O    -3.843000000     0.236000000     4.057000000
H    -3.993000000     1.170000000     4.209000000
H    -4.144000000     0.088000000     3.161000000
O    -4.635000000     0.072000000     1.398000000
H    -5.458000000     0.560000000     1.390000000
H    -4.560000000    -0.286000000     0.513000000
O    -6.011000000     2.602000000     0.465000000
H    -5.729000000     3.516000000     0.442000000
H    -6.262000000     2.451000000     1.376000000
O    -2.123000000    -3.743000000    -2.875000000
H    -1.775000000    -4.470000000    -2.358000000
H    -1.380000000    -3.151000000    -2.988000000
O    -0.926000000    -4.575000000    -5.408000000
H    -1.197000000    -4.273000000    -4.541000000
H    -0.022000000    -4.271000000    -5.495000000
O     1.221000000     4.469000000     0.384000000
H     1.720000000     4.813000000    -0.357000000
H     1.801000000     3.819000000     0.781000000
O    -0.633000000     2.719000000     4.822000000
H    -1.265000000     3.052000000     4.184000000
H    -1.012000000     2.939000000     5.673000000
