158
-3000.95351
C     0.513000000     0.457000000    -1.337000000
H     1.004000000     0.805000000    -2.243000000
C     0.721000000     1.060000000    -0.079000000
H     1.229000000     2.019000000    -0.151000000
C     0.150000000     0.489000000     1.121000000
H     0.334000000     0.940000000     2.027000000
C    -0.642000000    -0.634000000     1.038000000
H    -1.076000000    -1.007000000     1.962000000
C    -0.731000000    -1.283000000    -0.181000000
H    -1.390000000    -2.145000000    -0.232000000
C    -0.219000000    -0.711000000    -1.352000000
C    -0.504000000    -1.389000000    -2.657000000
O    -0.600000000    -0.822000000    -3.706000000
O    -0.074000000    -2.518000000    -2.692000000
O    -3.070000000     1.132000000     6.679000000
H    -3.209000000     1.968000000     7.125000000
H    -2.146000000     1.143000000     6.430000000
O    -1.313000000    -4.639000000     1.077000000
H    -2.062000000    -4.094000000     0.835000000
H    -0.961000000    -4.946000000     0.242000000
O     5.694000000    -0.732000000     0.151000000
H     6.049000000    -1.339000000    -0.498000000
H     4.744000000    -0.813000000     0.061000000
O     1.526000000    -7.256000000    -3.310000000
H     2.081000000    -7.734000000    -2.694000000
H     0.742000000    -7.038000000    -2.806000000
O    -0.722000000    -2.846000000    -5.455000000
H    -0.534000000    -2.307000000    -4.687000000
H    -0.874000000    -3.722000000    -5.101000000
O    -1.167000000     1.732000000    -3.664000000
H    -0.504000000     1.056000000    -3.523000000
H    -1.977000000     1.346000000    -3.331000000
O    -0.501000000    -2.641000000     4.448000000
H    -0.171000000    -3.101000000     3.676000000
H    -1.449000000    -2.773000000     4.419000000
O     1.363000000    -4.095000000    -1.319000000
H     0.812000000    -3.456000000    -1.771000000
H     0.763000000    -4.801000000    -1.079000000
O    -3.361000000    -2.802000000     4.199000000
H    -3.525000000    -2.412000000     5.058000000
H    -4.046000000    -2.440000000     3.638000000
O     1.624000000     2.816000000    -4.984000000
H     1.028000000     2.073000000    -5.075000000
H     2.491000000     2.451000000    -5.156000000
O     3.993000000    -2.714000000     3.923000000
H     3.574000000    -2.019000000     4.431000000
H     3.353000000    -2.937000000     3.248000000
O     1.985000000     5.048000000    -3.115000000
H     2.274000000     4.514000000    -2.375000000
H     1.899000000     4.427000000    -3.839000000
O    -5.720000000    -1.767000000     3.193000000
H    -6.094000000    -1.236000000     3.897000000
H    -5.478000000    -1.133000000     2.518000000
O     3.465000000     4.035000000    -0.953000000
H     3.238000000     3.581000000    -0.142000000
H     3.825000000     3.351000000    -1.518000000
O    -3.823000000    -3.458000000     0.753000000
H    -4.235000000    -2.630000000     1.000000000
H    -4.534000000    -3.974000000     0.372000000
O     3.153000000     3.222000000     1.566000000
H     3.919000000     2.748000000     1.891000000
H     2.557000000     3.257000000     2.314000000
O     1.779000000    -1.461000000    -7.384000000
H     2.121000000    -1.227000000    -8.247000000
H     1.046000000    -2.049000000    -7.569000000
O     2.689000000    -1.623000000    -0.641000000
H     2.187000000    -1.087000000    -0.027000000
H     2.118000000    -2.367000000    -0.833000000
O     2.821000000     5.635000000     4.081000000
H     3.114000000     6.442000000     4.506000000
H     3.299000000     4.940000000     4.533000000
O     0.688000000     5.981000000     2.197000000
H     1.446000000     5.930000000     2.780000000
H     0.409000000     6.896000000     2.246000000
O    -3.152000000     5.286000000     2.079000000
H    -2.814000000     5.263000000     1.183000000
H    -2.850000000     4.466000000     2.470000000
O     1.298000000     1.768000000    -8.030000000
H     1.596000000     1.419000000    -8.870000000
H     1.021000000     0.997000000    -7.535000000
O     0.100000000     0.124000000    -5.979000000
H     0.875000000    -0.361000000    -6.263000000
H    -0.171000000    -0.311000000    -5.171000000
O    -1.118000000    -1.631000000    -7.882000000
H    -0.799000000    -1.723000000    -6.984000000
H    -1.596000000    -0.802000000    -7.882000000
O     1.180000000     3.179000000     6.789000000
H     1.809000000     3.279000000     7.505000000
H     0.338000000     3.419000000     7.175000000
O     6.094000000     4.125000000     1.172000000
H     6.878000000     3.669000000     1.476000000
H     5.591000000     3.455000000     0.709000000
O     2.927000000    -0.245000000     5.178000000
H     2.459000000    -0.468000000     5.983000000
H     3.850000000    -0.242000000     5.431000000
O    -3.043000000     1.551000000     0.532000000
H    -2.970000000     2.089000000     1.320000000
H    -2.269000000     0.989000000     0.553000000
O     2.433000000    -3.864000000    -4.224000000
H     1.700000000    -3.617000000    -4.788000000
H     2.029000000    -4.055000000    -3.377000000
O     3.185000000     2.740000000     4.776000000
H     2.442000000     3.007000000     5.317000000
H     2.998000000     1.829000000     4.546000000
O    -0.794000000     1.767000000     4.986000000
H    -0.037000000     2.128000000     5.446000000
H    -0.681000000     0.818000000     5.047000000
O     0.875000000    -4.019000000     2.474000000
H     0.068000000    -4.385000000     2.112000000
H     1.570000000    -4.570000000     2.114000000
O    -1.357000000    -4.882000000    -1.943000000
H    -2.236000000    -4.938000000    -2.317000000
H    -0.929000000    -4.184000000    -2.439000000
O    -2.107000000     5.546000000    -0.599000000
H    -1.407000000     4.987000000    -0.260000000
H    -2.232000000     5.253000000    -1.501000000
O     5.134000000     1.139000000     2.371000000
H     5.529000000     0.568000000     1.712000000
H     5.849000000     1.336000000     2.976000000
O    -4.389000000     1.332000000    -3.604000000
H    -5.047000000     1.558000000    -4.261000000
H    -4.070000000     0.470000000    -3.871000000
O     4.341000000    -1.520000000    -3.650000000
H     3.427000000    -1.796000000    -3.585000000
H     4.672000000    -1.967000000    -4.429000000
O    -1.008000000     3.801000000     0.785000000
H    -0.576000000     2.947000000     0.789000000
H    -0.471000000     4.344000000     1.363000000
O     2.351000000     6.496000000    -0.135000000
H     2.865000000     5.744000000    -0.429000000
H     1.702000000     6.124000000     0.463000000
O     4.186000000     1.725000000    -2.629000000
H     3.980000000     0.793000000    -2.549000000
H     4.422000000     1.839000000    -3.550000000
O    -3.027000000    -5.213000000     3.039000000
H    -2.337000000    -4.977000000     2.419000000
H    -3.118000000    -4.445000000     3.602000000
O    -5.023000000    -0.763000000     0.786000000
H    -4.630000000     0.094000000     0.619000000
H    -5.487000000    -0.975000000    -0.024000000
O    -0.810000000    -1.102000000     6.592000000
H    -0.653000000    -1.657000000     5.829000000
H    -0.026000000    -1.207000000     7.131000000
O    -1.730000000    -5.405000000    -5.207000000
H    -2.553000000    -5.593000000    -4.755000000
H    -1.140000000    -6.105000000    -4.930000000
O    -3.345000000    -0.745000000    -4.644000000
H    -3.543000000    -1.542000000    -5.136000000
H    -2.399000000    -0.779000000    -4.504000000
O    -2.014000000     4.360000000    -3.026000000
H    -1.802000000     3.454000000    -3.251000000
H    -1.597000000     4.881000000    -3.713000000
O    -2.522000000     0.688000000    -6.816000000
H    -1.725000000     1.042000000    -6.421000000
H    -3.023000000     0.344000000    -6.077000000
O    -2.604000000     2.958000000     3.095000000
H    -2.030000000     2.471000000     3.686000000
H    -3.476000000     2.864000000     3.477000000
