158
-3057.63892
C     1.168000000    -0.632000000    -0.491000000
H     2.026000000    -1.289000000    -0.604000000
C     0.951000000    -0.214000000     0.822000000
H     1.639000000    -0.357000000     1.652000000
C    -0.167000000     0.528000000     1.039000000
H    -0.239000000     0.972000000     2.023000000
C    -1.156000000     0.753000000     0.086000000
H    -2.021000000     1.313000000     0.433000000
C    -0.967000000     0.192000000    -1.180000000
H    -1.636000000     0.443000000    -1.999000000
C     0.213000000    -0.574000000    -1.460000000
C     0.411000000    -1.264000000    -2.798000000
O     1.477000000    -1.752000000    -3.058000000
O    -0.597000000    -1.572000000    -3.394000000
O    -1.688000000    -4.091000000    -7.019000000
H    -2.168000000    -3.406000000    -6.553000000
H    -2.053000000    -4.078000000    -7.904000000
O    -0.778000000    -3.616000000     0.522000000
H     0.129000000    -3.636000000     0.218000000
H    -0.790000000    -2.937000000     1.197000000
O    -2.218000000     2.793000000    -3.211000000
H    -2.728000000     2.921000000    -4.010000000
H    -2.801000000     2.304000000    -2.630000000
O     2.077000000    -3.791000000     0.258000000
H     2.218000000    -4.259000000    -0.565000000
H     2.886000000    -3.298000000     0.395000000
O     1.798000000    -6.363000000    -2.858000000
H     1.199000000    -5.632000000    -2.705000000
H     1.555000000    -7.014000000    -2.200000000
O     2.654000000     0.537000000    -4.320000000
H     1.854000000     1.059000000    -4.376000000
H     2.392000000    -0.253000000    -3.847000000
O     4.243000000    -5.162000000     2.056000000
H     4.224000000    -4.342000000     1.564000000
H     4.832000000    -5.728000000     1.556000000
O     1.337000000    -2.823000000     2.895000000
H     0.388000000    -2.833000000     3.017000000
H     1.460000000    -2.984000000     1.959000000
O    -1.544000000     1.511000000    -7.321000000
H    -1.732000000     0.803000000    -6.705000000
H    -0.747000000     1.232000000    -7.771000000
O     4.389000000     3.230000000     0.502000000
H     4.472000000     2.453000000     1.055000000
H     4.161000000     2.885000000    -0.361000000
O    -1.467000000    -1.963000000     2.690000000
H    -2.365000000    -2.161000000     2.956000000
H    -1.323000000    -1.064000000     2.988000000
O     5.360000000    -0.918000000    -4.507000000
H     4.495000000    -0.608000000    -4.774000000
H     5.641000000    -1.491000000    -5.220000000
O    -4.819000000     0.758000000     5.635000000
H    -4.281000000     0.381000000     4.939000000
H    -5.423000000     1.345000000     5.179000000
O     4.468000000    -2.583000000     1.034000000
H     4.917000000    -2.118000000     1.741000000
H     4.958000000    -2.350000000     0.246000000
O     4.945000000     2.252000000     5.018000000
H     5.126000000     1.552000000     5.645000000
H     4.030000000     2.484000000     5.174000000
O    -1.289000000    -3.956000000     4.875000000
H    -0.910000000    -3.101000000     5.080000000
H    -2.095000000    -3.753000000     4.400000000
O    -2.096000000    -0.107000000    -4.996000000
H    -1.475000000    -0.573000000    -4.437000000
H    -2.645000000     0.386000000    -4.385000000
O     1.797000000     3.093000000     2.302000000
H     1.496000000     2.999000000     1.398000000
H     2.751000000     3.041000000     2.243000000
O     1.435000000    -2.123000000    -5.834000000
H     0.815000000    -2.845000000    -5.932000000
H     1.470000000    -1.963000000    -4.891000000
O     3.592000000    -1.292000000    -7.377000000
H     3.487000000    -0.402000000    -7.712000000
H     2.753000000    -1.493000000    -6.962000000
O     0.156000000    -4.767000000    -5.258000000
H    -0.288000000    -5.193000000    -4.525000000
H    -0.546000000    -4.553000000    -5.871000000
O     4.315000000     0.434000000    -0.478000000
H     4.383000000     0.522000000     0.473000000
H     4.610000000    -0.459000000    -0.657000000
O     2.979000000    -0.866000000     3.753000000
H     2.321000000    -1.489000000     3.444000000
H     3.447000000    -1.334000000     4.444000000
O     0.070000000     0.783000000     5.701000000
H    -0.562000000     0.360000000     5.121000000
H    -0.445000000     1.425000000     6.190000000
O    -5.644000000     1.789000000     1.339000000
H    -6.571000000     1.923000000     1.534000000
H    -5.348000000     2.630000000     0.990000000
O    -0.172000000     3.904000000     4.024000000
H     0.514000000     3.635000000     3.414000000
H    -0.982000000     3.577000000     3.633000000
O    -4.850000000     4.283000000     0.858000000
H    -4.476000000     4.389000000    -0.017000000
H    -5.195000000     5.148000000     1.078000000
O     0.380000000    -4.103000000    -2.083000000
H    -0.516000000    -3.822000000    -1.900000000
H     0.814000000    -3.317000000    -2.415000000
O    -1.909000000     5.624000000     5.439000000
H    -1.849000000     6.515000000     5.094000000
H    -1.135000000     5.180000000     5.092000000
O    -1.806000000     4.386000000    -0.968000000
H    -2.101000000     4.156000000    -1.849000000
H    -0.982000000     3.910000000    -0.860000000
O     4.397000000     0.993000000     2.505000000
H     4.523000000     1.699000000     3.140000000
H     3.942000000     0.308000000     2.995000000
O    -3.199000000    -4.141000000    -1.075000000
H    -2.493000000    -3.953000000    -0.457000000
H    -3.994000000    -4.130000000    -0.542000000
O    -1.991000000     0.745000000     3.963000000
H    -2.621000000     0.426000000     3.316000000
H    -1.905000000     1.679000000     3.773000000
O    -5.449000000    -0.593000000    -2.884000000
H    -5.707000000    -0.931000000    -3.741000000
H    -4.608000000    -1.013000000    -2.703000000
O     4.283000000     2.169000000    -2.477000000
H     4.352000000     1.452000000    -1.846000000
H     3.861000000     1.776000000    -3.241000000
O     2.442000000     2.271000000     5.636000000
H     2.684000000     1.812000000     6.440000000
H     1.613000000     1.872000000     5.373000000
O     3.387000000    -3.281000000    -3.897000000
H     2.686000000    -2.678000000    -3.652000000
H     2.945000000    -3.979000000    -4.381000000
O    -4.173000000     1.374000000    -1.592000000
H    -4.561000000     1.589000000    -0.743000000
H    -4.805000000     0.783000000    -2.001000000
O     0.611000000     1.939000000    -3.611000000
H    -0.288000000     1.784000000    -3.903000000
H     0.847000000     2.781000000    -3.999000000
O     3.979000000     4.807000000     3.768000000
H     3.065000000     4.522000000     3.782000000
H     4.481000000     4.007000000     3.924000000
O     4.619000000    -1.679000000    -1.911000000
H     3.756000000    -1.994000000    -2.180000000
H     5.079000000    -1.509000000    -2.733000000
O    -4.166000000    -0.273000000     2.870000000
H    -4.507000000     0.479000000     2.384000000
H    -4.856000000    -0.933000000     2.803000000
O     0.552000000    -1.923000000     6.703000000
H     0.762000000    -1.134000000     6.204000000
H     0.972000000    -1.788000000     7.553000000
O    -3.281000000    -2.238000000    -2.941000000
H    -3.305000000    -3.072000000    -2.472000000
H    -2.349000000    -2.058000000    -3.061000000
O    -5.642000000     1.980000000    -4.459000000
H    -5.796000000     1.132000000    -4.875000000
H    -4.752000000     2.217000000    -4.722000000
O    -3.243000000    -2.472000000    -5.768000000
H    -3.140000000    -1.545000000    -5.552000000
H    -3.538000000    -2.877000000    -4.953000000
O     0.953000000     2.865000000    -0.538000000
H     1.435000000     2.776000000    -1.360000000
H     0.587000000     1.995000000    -0.379000000
O    -2.752000000     3.217000000     3.016000000
H    -3.252000000     3.749000000     2.397000000
H    -3.296000000     3.190000000     3.804000000
