158
-3034.81526
C     1.289000000    -0.682000000    -0.131000000
H     2.236000000    -1.212000000    -0.068000000
C     0.740000000    -0.236000000     1.015000000
H     1.295000000    -0.383000000     1.938000000
C    -0.505000000     0.361000000     1.089000000
H    -0.861000000     0.883000000     2.012000000
C    -1.253000000     0.438000000    -0.074000000
H    -2.216000000     0.937000000    -0.153000000
C    -0.639000000     0.030000000    -1.279000000
H    -1.208000000     0.217000000    -2.186000000
C     0.611000000    -0.509000000    -1.345000000
C     1.165000000    -1.070000000    -2.651000000
O     2.269000000    -1.677000000    -2.660000000
O     0.614000000    -0.803000000    -3.683000000
O     1.177000000    -2.984000000    -5.086000000
H     1.251000000    -2.508000000    -5.914000000
H     1.203000000    -2.302000000    -4.415000000
O    -1.069000000     2.909000000    -3.641000000
H    -1.161000000     3.689000000    -4.189000000
H    -1.952000000     2.543000000    -3.597000000
O     4.008000000    -3.551000000    -1.599000000
H     3.707000000    -4.365000000    -2.004000000
H     3.453000000    -2.872000000    -1.984000000
O     3.507000000    -5.894000000    -2.937000000
H     2.693000000    -6.110000000    -3.392000000
H     4.193000000    -6.296000000    -3.470000000
O    -3.692000000     5.450000000     4.397000000
H    -3.079000000     6.051000000     3.974000000
H    -4.136000000     5.010000000     3.671000000
O    -4.040000000    -4.175000000     2.481000000
H    -3.759000000    -3.310000000     2.185000000
H    -3.266000000    -4.547000000     2.904000000
O     0.932000000    -5.663000000     1.169000000
H     0.598000000    -5.069000000     1.841000000
H     0.863000000    -5.164000000     0.354000000
O     3.468000000     1.791000000    -2.312000000
H     3.383000000     0.866000000    -2.541000000
H     3.642000000     1.789000000    -1.370000000
O    -0.256000000    -3.077000000     1.808000000
H    -0.488000000    -2.154000000     1.914000000
H     0.115000000    -3.131000000     0.928000000
O    -0.214000000     3.331000000     2.440000000
H     0.281000000     2.937000000     1.722000000
H    -0.506000000     4.175000000     2.096000000
O    -3.663000000     4.056000000     0.545000000
H    -2.936000000     4.625000000     0.800000000
H    -4.158000000     4.572000000    -0.092000000
O    -0.943000000     5.853000000     1.723000000
H    -1.672000000     6.470000000     1.782000000
H    -0.214000000     6.300000000     2.153000000
O    -0.587000000     5.372000000     5.836000000
H    -0.897000000     6.262000000     5.668000000
H    -0.136000000     5.119000000     5.030000000
O     5.867000000    -2.665000000     1.680000000
H     6.237000000    -1.786000000     1.601000000
H     6.162000000    -3.121000000     0.892000000
O     2.498000000     3.845000000     6.190000000
H     2.945000000     3.202000000     6.740000000
H     1.912000000     3.324000000     5.640000000
O     3.668000000     1.388000000     0.420000000
H     4.001000000     1.548000000     1.304000000
H     4.090000000     0.573000000     0.150000000
O    -0.386000000    -3.505000000     5.696000000
H    -0.701000000    -3.583000000     6.597000000
H    -0.574000000    -2.599000000     5.454000000
O    -1.683000000    -0.275000000    -5.144000000
H    -1.974000000     0.559000000    -4.776000000
H    -0.800000000    -0.396000000    -4.795000000
O     3.325000000     0.532000000     3.600000000
H     3.446000000    -0.403000000     3.761000000
H     2.654000000     0.799000000     4.229000000
O     2.101000000     0.856000000    -5.476000000
H     1.655000000     1.629000000    -5.822000000
H     1.411000000     0.356000000    -5.040000000
O     0.323000000    -5.514000000    -5.925000000
H     0.060000000    -5.271000000    -6.813000000
H     0.649000000    -4.700000000    -5.541000000
O     4.489000000    -0.666000000    -1.063000000
H     4.012000000    -1.135000000    -1.748000000
H     4.792000000    -1.352000000    -0.469000000
O     1.998000000    -4.330000000     4.279000000
H     1.406000000    -3.734000000     4.739000000
H     2.803000000    -4.312000000     4.796000000
O     2.304000000    -0.613000000     6.402000000
H     2.214000000    -0.960000000     7.290000000
H     1.509000000    -0.900000000     5.951000000
O    -5.822000000     1.177000000     3.956000000
H    -6.460000000     1.619000000     3.395000000
H    -4.983000000     1.577000000     3.725000000
O     0.860000000     2.123000000     4.778000000
H     0.545000000     2.377000000     3.911000000
H     0.124000000     1.656000000     5.173000000
O    -3.560000000     2.782000000     2.950000000
H    -3.960000000     3.128000000     2.152000000
H    -2.643000000     3.052000000     2.896000000
O     0.639000000    -3.757000000    -0.700000000
H    -0.048000000    -3.776000000    -1.367000000
H     1.366000000    -3.295000000    -1.118000000
O    -2.591000000     3.616000000     6.364000000
H    -3.200000000     3.819000000     5.654000000
H    -1.825000000     4.160000000     6.184000000
O    -0.793000000     4.170000000    -1.126000000
H    -1.134000000     3.852000000    -1.963000000
H    -0.477000000     3.383000000    -0.682000000
O     3.631000000    -2.077000000     3.440000000
H     4.307000000    -2.393000000     2.840000000
H     3.025000000    -2.812000000     3.526000000
O    -1.088000000    -0.918000000     4.649000000
H    -1.698000000    -0.908000000     3.912000000
H    -1.409000000    -0.233000000     5.235000000
O    -3.312000000    -1.876000000    -1.819000000
H    -3.063000000    -0.996000000    -2.104000000
H    -2.542000000    -2.414000000    -2.003000000
O     4.042000000    -0.386000000    -4.212000000
H     3.513000000    -1.000000000    -3.703000000
H     3.402000000     0.138000000    -4.695000000
O     4.225000000    -4.059000000    -5.509000000
H     4.239000000    -4.557000000    -4.691000000
H     3.371000000    -4.257000000    -5.894000000
O    -3.391000000     1.625000000    -3.742000000
H    -3.883000000     1.796000000    -2.939000000
H    -3.951000000     1.033000000    -4.244000000
O    -0.242000000    -0.243000000    -8.174000000
H     0.125000000    -1.127000000    -8.192000000
H    -0.784000000    -0.225000000    -7.385000000
O     1.967000000     3.339000000    -3.890000000
H     1.161000000     3.275000000    -3.378000000
H     2.564000000     2.715000000    -3.475000000
O     4.559000000     2.999000000     2.867000000
H     3.966000000     2.338000000     3.223000000
H     4.030000000     3.476000000     2.228000000
O     3.975000000    -4.873000000     0.847000000
H     4.159000000    -4.290000000     0.110000000
H     3.020000000    -4.945000000     0.862000000
O    -6.055000000     0.454000000     0.055000000
H    -6.013000000     1.000000000     0.840000000
H    -6.971000000     0.500000000    -0.220000000
O    -3.181000000    -1.275000000     3.073000000
H    -3.951000000    -1.314000000     3.640000000
H    -3.528000000    -1.037000000     2.213000000
O    -3.994000000    -1.292000000     0.577000000
H    -4.596000000    -0.583000000     0.349000000
H    -3.810000000    -1.726000000    -0.256000000
O    -4.464000000     2.163000000    -1.329000000
H    -3.920000000     2.687000000    -0.742000000
H    -5.131000000     1.779000000    -0.760000000
O    -1.093000000    -3.061000000    -2.617000000
H    -1.605000000    -3.761000000    -3.021000000
H    -0.973000000    -2.418000000    -3.316000000
O    -1.553000000    -2.904000000    -6.071000000
H    -1.896000000    -2.023000000    -5.919000000
H    -0.721000000    -2.921000000    -5.598000000
O     1.048000000     2.489000000     0.160000000
H     1.989000000     2.495000000     0.334000000
H     0.824000000     1.561000000     0.088000000
O    -1.312000000     1.246000000     6.182000000
H    -1.739000000     2.083000000     6.364000000
H    -1.356000000     0.769000000     7.011000000
