158
-3039.38472
C     1.048000000     0.131000000    -1.001000000
H     1.923000000     0.135000000    -1.647000000
C     1.001000000     0.783000000     0.139000000
H     1.837000000     1.463000000     0.282000000
C     0.002000000     0.563000000     1.071000000
H    -0.011000000     1.113000000     2.023000000
C    -1.003000000    -0.237000000     0.731000000
H    -1.871000000    -0.327000000     1.379000000
C    -1.056000000    -0.929000000    -0.508000000
H    -1.897000000    -1.540000000    -0.826000000
C     0.036000000    -0.796000000    -1.383000000
C    -0.176000000    -1.312000000    -2.801000000
O     0.730000000    -1.120000000    -3.611000000
O    -1.024000000    -2.183000000    -2.968000000
O    -1.893000000    -3.871000000     2.440000000
H    -1.611000000    -4.759000000     2.220000000
H    -2.840000000    -3.944000000     2.559000000
O    -2.392000000    -4.401000000    -3.841000000
H    -2.058000000    -3.518000000    -4.000000000
H    -2.870000000    -4.330000000    -3.014000000
O    -3.465000000     1.892000000    -1.008000000
H    -3.749000000     2.627000000    -0.464000000
H    -4.218000000     1.301000000    -1.025000000
O     0.488000000    -2.782000000     3.475000000
H    -0.216000000    -3.323000000     3.117000000
H     1.053000000    -2.596000000     2.725000000
O     2.258000000    -3.481000000    -1.032000000
H     1.360000000    -3.812000000    -1.059000000
H     2.799000000    -4.241000000    -1.248000000
O    -4.000000000    -6.046000000    -5.579000000
H    -3.355000000    -6.054000000    -6.287000000
H    -3.588000000    -5.531000000    -4.885000000
O    -1.320000000    -2.545000000     5.881000000
H    -0.797000000    -2.200000000     5.157000000
H    -1.978000000    -1.869000000     6.044000000
O     1.445000000     3.723000000    -2.185000000
H     0.575000000     3.950000000    -1.856000000
H     1.281000000     3.070000000    -2.865000000
O     3.161000000    -1.601000000    -6.820000000
H     2.540000000    -2.328000000    -6.775000000
H     3.315000000    -1.474000000    -7.756000000
O    -4.807000000    -0.839000000     4.849000000
H    -3.876000000    -0.616000000     4.847000000
H    -4.967000000    -1.208000000     3.981000000
O    -1.214000000     3.646000000    -5.137000000
H    -0.965000000     3.122000000    -4.376000000
H    -0.716000000     3.269000000    -5.861000000
O     3.187000000     3.283000000     3.525000000
H     2.747000000     2.936000000     4.301000000
H     3.862000000     2.635000000     3.323000000
O    -4.954000000    -1.297000000     1.985000000
H    -5.702000000    -0.708000000     1.886000000
H    -5.023000000    -1.900000000     1.244000000
O     6.982000000     3.130000000     0.124000000
H     6.144000000     2.687000000     0.255000000
H     7.060000000     3.220000000    -0.825000000
O     4.008000000     1.656000000    -3.148000000
H     3.183000000     1.706000000    -3.630000000
H     4.135000000     0.721000000    -2.988000000
O    -0.178000000    -4.835000000    -7.134000000
H    -0.659000000    -4.402000000    -7.839000000
H     0.121000000    -4.120000000    -6.573000000
O     1.980000000    -2.302000000     1.274000000
H     1.864000000    -1.359000000     1.155000000
H     1.769000000    -2.679000000     0.420000000
O    -0.061000000    -0.573000000    -6.052000000
H     0.383000000    -1.022000000    -6.770000000
H     0.209000000    -1.049000000    -5.267000000
O     0.443000000     4.010000000     2.672000000
H     1.060000000     4.455000000     2.090000000
H     0.909000000     3.224000000     2.958000000
O     1.622000000     1.686000000    -4.544000000
H     1.349000000     1.786000000    -5.456000000
H     1.102000000     0.953000000    -4.217000000
O     1.089000000    -3.379000000    -5.158000000
H     0.922000000    -2.862000000    -4.370000000
H     2.014000000    -3.615000000    -5.097000000
O     0.266000000     2.218000000    -6.906000000
H    -0.049000000     1.317000000    -6.978000000
H     0.933000000     2.294000000    -7.588000000
O     4.773000000     1.722000000     0.181000000
H     4.553000000     1.581000000     1.101000000
H     4.969000000     0.848000000    -0.155000000
O     2.045000000    -0.603000000     4.659000000
H     1.444000000    -1.268000000     4.322000000
H     1.709000000    -0.398000000     5.532000000
O    -2.422000000     0.021000000     4.852000000
H    -2.379000000     0.648000000     4.129000000
H    -2.279000000     0.550000000     5.637000000
O    -0.395000000     3.890000000     5.443000000
H     0.071000000     4.183000000     4.660000000
H    -1.257000000     3.623000000     5.123000000
O     1.226000000    -0.441000000     7.255000000
H     1.083000000     0.205000000     7.947000000
H     1.157000000    -1.287000000     7.698000000
O    -2.088000000     1.191000000     7.413000000
H    -1.489000000     1.477000000     8.102000000
H    -2.329000000     1.996000000     6.955000000
O    -0.243000000    -4.430000000    -1.301000000
H    -0.590000000    -5.315000000    -1.413000000
H    -0.592000000    -3.940000000    -2.046000000
O    -1.082000000     5.503000000     0.422000000
H    -0.812000000     4.696000000    -0.016000000
H    -0.352000000     5.716000000     1.004000000
O     3.850000000     0.634000000     2.938000000
H     4.513000000     0.293000000     3.539000000
H     3.073000000     0.103000000     3.114000000
O    -5.634000000    -3.416000000    -0.908000000
H    -6.275000000    -3.953000000    -1.372000000
H    -6.152000000    -2.723000000    -0.499000000
O    -2.674000000    -3.124000000    -7.364000000
H    -1.934000000    -3.040000000    -7.965000000
H    -2.698000000    -2.289000000    -6.896000000
O    -2.961000000     2.817000000     4.500000000
H    -3.829000000     2.435000000     4.631000000
H    -3.135000000     3.709000000     4.198000000
O    -5.906000000    -0.133000000    -2.833000000
H    -6.615000000    -0.317000000    -3.449000000
H    -5.257000000    -0.816000000    -3.003000000
O     3.719000000     4.218000000    -0.854000000
H     4.030000000     3.368000000    -0.542000000
H     2.998000000     4.007000000    -1.447000000
O     2.125000000     3.068000000     6.709000000
H     2.181000000     2.765000000     7.616000000
H     1.189000000     3.202000000     6.559000000
O     3.215000000    -1.730000000    -2.964000000
H     2.555000000    -1.525000000    -3.626000000
H     2.743000000    -2.231000000    -2.300000000
O     0.079000000    -5.896000000    -4.460000000
H    -0.681000000    -5.394000000    -4.167000000
H     0.676000000    -5.239000000    -4.819000000
O    -0.922000000     3.080000000    -1.080000000
H    -0.351000000     2.480000000    -0.600000000
H    -1.739000000     2.594000000    -1.193000000
O     3.508000000     6.188000000     3.406000000
H     3.128000000     5.549000000     2.803000000
H     4.454000000     6.098000000     3.285000000
O    -3.813000000    -5.501000000    -1.480000000
H    -4.293000000    -6.121000000    -0.931000000
H    -4.280000000    -4.673000000    -1.371000000
O     5.019000000    -0.697000000    -0.862000000
H     4.361000000    -0.973000000    -1.500000000
H     5.841000000    -1.054000000    -1.197000000
O     6.355000000     2.988000000    -2.641000000
H     5.459000000     2.681000000    -2.505000000
H     6.708000000     2.405000000    -3.314000000
O    -3.541000000    -1.725000000    -3.114000000
H    -3.917000000    -2.332000000    -2.476000000
H    -2.603000000    -1.724000000    -2.920000000
O    -2.908000000    -0.850000000    -5.847000000
H    -2.035000000    -0.491000000    -6.008000000
H    -2.892000000    -1.114000000    -4.927000000
O     2.010000000     5.550000000     1.117000000
H     1.623000000     6.301000000     0.666000000
H     2.431000000     5.045000000     0.422000000
O    -2.690000000     5.189000000     2.902000000
H    -2.044000000     4.717000000     2.377000000
H    -2.458000000     6.112000000     2.796000000
