158
-3061.94792
C     1.059000000    -1.005000000     0.322000000
H     1.911000000    -1.567000000     0.696000000
C     1.159000000     0.414000000     0.381000000
H     2.018000000     0.865000000     0.871000000
C     0.071000000     1.208000000     0.113000000
H     0.121000000     2.256000000     0.284000000
C    -1.110000000     0.624000000    -0.406000000
H    -1.975000000     1.266000000    -0.553000000
C    -1.149000000    -0.766000000    -0.495000000
H    -2.055000000    -1.266000000    -0.829000000
C    -0.063000000    -1.555000000    -0.187000000
C    -0.074000000    -3.033000000    -0.413000000
O     0.897000000    -3.726000000    -0.149000000
O    -1.047000000    -3.489000000    -0.982000000
O     4.922000000    -2.518000000    -1.602000000
H     5.712000000    -3.051000000    -1.695000000
H     4.959000000    -2.190000000    -0.703000000
O    -1.622000000    -1.664000000     4.702000000
H    -1.859000000    -2.355000000     4.083000000
H    -1.457000000    -0.898000000     4.153000000
O     2.669000000     5.611000000    -2.820000000
H     1.828000000     5.155000000    -2.848000000
H     3.286000000     4.999000000    -3.221000000
O     4.588000000     1.646000000    -2.322000000
H     4.426000000     2.212000000    -3.077000000
H     4.024000000     1.998000000    -1.633000000
O     6.952000000     2.001000000     0.410000000
H     6.928000000     1.746000000     1.332000000
H     6.446000000     1.324000000    -0.039000000
O     0.282000000    -4.566000000     2.619000000
H     0.705000000    -4.576000000     1.760000000
H     0.707000000    -3.847000000     3.086000000
O    -3.635000000     3.243000000     0.277000000
H    -3.241000000     2.565000000     0.828000000
H    -4.287000000     3.660000000     0.840000000
O     2.180000000    -6.761000000     1.147000000
H     2.452000000    -6.909000000     0.241000000
H     2.544000000    -5.904000000     1.368000000
O     3.147000000     3.765000000     0.923000000
H     3.468000000     3.250000000     1.664000000
H     3.919000000     4.234000000     0.605000000
O     1.907000000     6.924000000    -0.329000000
H     2.153000000     6.718000000    -1.231000000
H     1.330000000     6.206000000    -0.069000000
O     3.003000000    -4.181000000     1.374000000
H     2.199000000    -3.816000000     1.006000000
H     3.527000000    -3.416000000     1.613000000
O    -2.267000000    -3.558000000     2.557000000
H    -1.359000000    -3.759000000     2.331000000
H    -2.780000000    -4.227000000     2.103000000
O    -0.780000000     4.973000000    -3.264000000
H    -0.830000000     4.837000000    -2.318000000
H    -1.119000000     4.161000000    -3.641000000
O    -1.601000000     4.918000000    -0.579000000
H    -2.240000000     4.233000000    -0.382000000
H    -0.798000000     4.626000000    -0.147000000
O    -5.834000000    -2.841000000     0.092000000
H    -4.970000000    -3.234000000     0.217000000
H    -6.449000000    -3.539000000     0.312000000
O     0.542000000     4.817000000     1.166000000
H     1.462000000     4.552000000     1.156000000
H     0.484000000     5.455000000     1.876000000
O     3.342000000    -0.383000000     3.685000000
H     3.895000000    -0.374000000     4.466000000
H     2.864000000     0.446000000     3.721000000
O     2.781000000    -4.761000000     4.553000000
H     2.269000000    -3.955000000     4.489000000
H     2.145000000    -5.429000000     4.810000000
O     1.875000000     4.495000000     4.488000000
H     1.903000000     5.426000000     4.267000000
H     0.948000000     4.314000000     4.647000000
O    -1.982000000     2.770000000    -4.279000000
H    -2.730000000     2.462000000    -3.767000000
H    -1.922000000     2.154000000    -5.009000000
O    -3.595000000     4.136000000     3.819000000
H    -4.219000000     3.548000000     3.393000000
H    -3.322000000     4.738000000     3.127000000
O     3.245000000    -0.827000000    -4.065000000
H     2.571000000    -1.190000000    -3.491000000
H     4.062000000    -0.949000000    -3.582000000
O     1.526000000    -2.275000000     3.964000000
H     0.928000000    -1.531000000     3.903000000
H     2.390000000    -1.903000000     3.787000000
O    -4.321000000     2.572000000    -2.386000000
H    -3.829000000     2.988000000    -1.678000000
H    -4.562000000     3.294000000    -2.966000000
O    -5.216000000     0.025000000    -2.844000000
H    -4.865000000     0.898000000    -2.664000000
H    -5.247000000    -0.402000000    -1.988000000
O    -0.596000000    -5.547000000    -3.565000000
H    -0.524000000    -5.172000000    -2.688000000
H    -1.536000000    -5.677000000    -3.694000000
O    -0.096000000    -8.465000000     1.790000000
H     0.688000000    -7.956000000     1.582000000
H     0.241000000    -9.299000000     2.117000000
O     6.014000000    -4.414000000     0.495000000
H     5.865000000    -4.694000000    -0.408000000
H     5.150000000    -4.457000000     0.904000000
O    -0.226000000     0.618000000     3.248000000
H    -0.032000000     0.954000000     2.373000000
H    -0.365000000     1.401000000     3.780000000
O    -0.006000000    -6.955000000    -0.700000000
H     0.433000000    -6.212000000    -0.287000000
H    -0.155000000    -7.574000000     0.015000000
O    -1.147000000     3.256000000     4.659000000
H    -1.484000000     2.756000000     5.402000000
H    -1.863000000     3.845000000     4.421000000
O    -5.060000000    -3.215000000    -3.305000000
H    -5.844000000    -3.524000000    -2.851000000
H    -5.384000000    -2.871000000    -4.137000000
O     4.475000000    -1.847000000     1.260000000
H     5.405000000    -1.626000000     1.215000000
H     4.088000000    -1.148000000     1.788000000
O    -1.948000000    -8.470000000    -1.790000000
H    -1.442000000    -9.282000000    -1.775000000
H    -1.382000000    -7.828000000    -1.360000000
O     1.627000000     1.334000000    -4.994000000
H     1.013000000     0.891000000    -4.407000000
H     2.399000000     0.769000000    -5.003000000
O    -2.276000000    -3.066000000    -3.294000000
H    -3.171000000    -3.403000000    -3.305000000
H    -1.976000000    -3.211000000    -2.396000000
O    -2.821000000     6.028000000     2.052000000
H    -3.432000000     6.739000000     1.861000000
H    -2.149000000     6.100000000     1.374000000
O    -3.009000000    -0.508000000    -4.646000000
H    -2.506000000    -1.207000000    -4.229000000
H    -3.770000000    -0.387000000    -4.078000000
O    -3.236000000    -6.513000000    -3.408000000
H    -3.685000000    -6.137000000    -2.650000000
H    -2.929000000    -7.367000000    -3.105000000
O    -3.079000000     1.599000000     2.316000000
H    -2.209000000     1.296000000     2.577000000
H    -3.684000000     1.033000000     2.796000000
O     3.975000000     2.458000000     3.197000000
H     3.616000000     2.755000000     4.033000000
H     4.914000000     2.364000000     3.359000000
O     2.337000000    -3.648000000    -2.482000000
H     3.238000000    -3.377000000    -2.305000000
H     1.866000000    -3.458000000    -1.671000000
O     2.937000000    -6.503000000    -1.647000000
H     2.578000000    -5.647000000    -1.879000000
H     2.729000000    -7.061000000    -2.397000000
O    -3.439000000    -4.484000000     0.264000000
H    -3.621000000    -5.259000000    -0.267000000
H    -2.668000000    -4.089000000    -0.145000000
O    -1.680000000     7.761000000    -0.935000000
H    -1.477000000     6.828000000    -1.001000000
H    -0.828000000     8.195000000    -0.986000000
O    -0.033000000    -0.587000000    -3.889000000
H     0.097000000    -1.405000000    -4.371000000
H    -0.850000000    -0.720000000    -3.409000000
O     0.399000000    -3.202000000    -4.609000000
H     1.314000000    -3.332000000    -4.358000000
H    -0.076000000    -3.892000000    -4.145000000
O    -4.133000000    -1.347000000     1.960000000
H    -3.534000000    -2.089000000     2.047000000
H    -4.692000000    -1.577000000     1.218000000
