158
-3034.04320
C     1.014000000    -0.569000000    -0.866000000
H     1.812000000    -0.914000000    -1.518000000
C     1.197000000     0.471000000     0.061000000
H     2.144000000     0.909000000     0.363000000
C     0.128000000     1.016000000     0.746000000
H     0.190000000     1.937000000     1.365000000
C    -1.132000000     0.431000000     0.497000000
H    -2.068000000     0.717000000     0.971000000
C    -1.297000000    -0.663000000    -0.323000000
H    -2.259000000    -1.163000000    -0.403000000
C    -0.216000000    -1.190000000    -1.056000000
C    -0.345000000    -2.336000000    -1.967000000
O     0.582000000    -2.535000000    -2.745000000
O    -1.400000000    -2.949000000    -2.099000000
O     1.470000000     5.715000000     4.681000000
H     1.499000000     5.739000000     3.725000000
H     2.131000000     6.349000000     4.957000000
O     6.361000000     0.730000000     2.455000000
H     6.142000000     0.752000000     1.524000000
H     5.779000000     1.377000000     2.854000000
O    -1.546000000     5.948000000     5.760000000
H    -0.946000000     6.484000000     6.279000000
H    -0.981000000     5.487000000     5.141000000
O    -0.231000000    -5.416000000     1.621000000
H    -0.617000000    -4.564000000     1.824000000
H    -0.146000000    -5.849000000     2.471000000
O     2.215000000    -6.101000000    -4.621000000
H     2.621000000    -6.042000000    -5.485000000
H     1.367000000    -5.669000000    -4.724000000
O    -4.726000000     0.514000000     3.951000000
H    -5.187000000     1.349000000     4.023000000
H    -5.408000000    -0.147000000     4.072000000
O    -0.334000000    -4.896000000    -3.779000000
H    -0.134000000    -4.135000000    -3.235000000
H    -0.879000000    -4.549000000    -4.486000000
O     1.218000000    -5.497000000    -0.830000000
H     0.526000000    -5.749000000    -1.441000000
H     0.775000000    -5.422000000     0.016000000
O    -3.675000000    -6.938000000    -2.191000000
H    -3.225000000    -6.115000000    -2.001000000
H    -4.480000000    -6.675000000    -2.637000000
O     4.470000000    -0.558000000    -2.344000000
H     4.023000000    -1.400000000    -2.259000000
H     4.721000000    -0.512000000    -3.267000000
O     2.677000000     1.535000000    -4.157000000
H     2.379000000     0.626000000    -4.201000000
H     1.947000000     2.006000000    -3.755000000
O     5.489000000     1.188000000    -0.241000000
H     6.113000000     1.700000000    -0.755000000
H     4.849000000     0.877000000    -0.882000000
O    -2.329000000    -5.084000000    -0.583000000
H    -1.717000000    -5.410000000     0.077000000
H    -1.952000000    -4.252000000    -0.868000000
O    -5.496000000    -5.748000000    -3.979000000
H    -6.014000000    -5.296000000    -4.645000000
H    -4.825000000    -5.113000000    -3.726000000
O    -0.918000000    -2.645000000     2.611000000
H    -0.620000000    -1.736000000     2.601000000
H    -1.813000000    -2.608000000     2.274000000
O    -3.374000000    -1.666000000     2.093000000
H    -3.451000000    -0.742000000     2.331000000
H    -4.262000000    -1.925000000     1.848000000
O    -0.603000000    -1.114000000    -6.024000000
H    -0.869000000    -1.835000000    -6.594000000
H    -0.167000000    -0.494000000    -6.609000000
O    -2.531000000     0.745000000     5.659000000
H    -3.113000000     0.296000000     5.046000000
H    -3.109000000     1.050000000     6.358000000
O     4.897000000     3.829000000     3.583000000
H     5.153000000     4.211000000     2.744000000
H     3.941000000     3.796000000     3.550000000
O     4.688000000     5.536000000     1.327000000
H     4.778000000     5.046000000     0.509000000
H     5.378000000     6.198000000     1.287000000
O     2.146000000     6.229000000     2.060000000
H     1.591000000     6.623000000     1.388000000
H     2.934000000     5.955000000     1.591000000
O    -0.015000000     6.447000000     0.458000000
H    -0.241000000     5.561000000     0.741000000
H     0.560000000     6.319000000    -0.296000000
O     0.268000000     0.887000000     6.188000000
H    -0.652000000     1.011000000     5.956000000
H     0.611000000     1.776000000     6.288000000
O     1.725000000    -1.363000000    -4.772000000
H     0.928000000    -1.029000000    -5.184000000
H     1.417000000    -1.816000000    -3.987000000
O    -0.490000000     4.236000000     1.950000000
H    -0.790000000     4.057000000     2.841000000
H    -1.074000000     3.721000000     1.393000000
O    -2.164000000    -0.350000000    -4.019000000
H    -1.723000000    -0.568000000    -4.840000000
H    -2.216000000    -1.181000000    -3.547000000
O    -5.723000000    -2.358000000    -1.446000000
H    -6.474000000    -2.776000000    -1.023000000
H    -4.965000000    -2.840000000    -1.117000000
O     2.944000000    -3.424000000    -6.194000000
H     2.448000000    -2.762000000    -5.712000000
H     3.724000000    -3.575000000    -5.660000000
O     1.162000000     3.377000000     6.204000000
H     0.994000000     4.225000000     5.792000000
H     2.069000000     3.175000000     5.975000000
O     2.561000000    -1.728000000     2.692000000
H     2.022000000    -1.658000000     3.480000000
H     1.948000000    -1.987000000     2.005000000
O     1.134000000    -1.482000000     5.011000000
H     0.710000000    -2.167000000     5.529000000
H     1.033000000    -0.688000000     5.536000000
O     3.113000000    -3.008000000    -1.857000000
H     2.910000000    -3.560000000    -1.102000000
H     2.265000000    -2.842000000    -2.267000000
O     2.489000000     2.853000000     2.362000000
H     1.627000000     3.262000000     2.290000000
H     2.841000000     2.878000000     1.472000000
O     0.574000000    -7.315000000    -2.951000000
H     1.440000000    -7.020000000    -3.233000000
H    -0.026000000    -6.647000000    -3.283000000
O     1.152000000     3.295000000    -2.863000000
H     1.401000000     3.336000000    -1.939000000
H     1.055000000     4.210000000    -3.126000000
O     3.868000000     2.652000000     6.441000000
H     4.626000000     3.237000000     6.437000000
H     3.857000000     2.270000000     5.563000000
O    -2.328000000    -4.051000000    -6.294000000
H    -3.027000000    -4.588000000    -6.667000000
H    -1.666000000    -4.007000000    -6.984000000
O    -4.680000000     1.625000000     0.064000000
H    -5.541000000     1.829000000     0.430000000
H    -4.870000000     1.128000000    -0.731000000
O    -4.690000000     0.133000000    -2.343000000
H    -4.907000000    -0.775000000    -2.132000000
H    -3.813000000     0.088000000    -2.725000000
O    -3.332000000     5.517000000    -0.678000000
H    -2.497000000     5.755000000    -1.082000000
H    -3.105000000     4.844000000    -0.036000000
O     2.562000000     4.072000000    -0.708000000
H     3.443000000     3.895000000    -1.039000000
H     2.494000000     5.027000000    -0.710000000
O     5.788000000    -1.821000000    -0.144000000
H     5.755000000    -0.886000000    -0.348000000
H     5.089000000    -2.206000000    -0.672000000
O    -3.468000000    -3.624000000    -3.520000000
H    -2.732000000    -3.445000000    -2.935000000
H    -3.070000000    -3.709000000    -4.386000000
O     3.379000000     0.875000000     4.051000000
H     2.748000000     0.169000000     3.911000000
H     3.040000000     1.606000000     3.534000000
O    -4.965000000    -4.884000000     0.496000000
H    -4.047000000    -4.989000000     0.246000000
H    -5.373000000    -5.720000000     0.269000000
O    -1.491000000     2.320000000    -3.382000000
H    -0.674000000     2.806000000    -3.266000000
H    -1.227000000     1.400000000    -3.360000000
O    -2.941000000     3.414000000     0.896000000
H    -3.518000000     2.703000000     0.618000000
H    -3.150000000     3.544000000     1.821000000
O    -2.034000000     2.761000000     3.858000000
H    -2.935000000     3.077000000     3.917000000
H    -1.991000000     2.039000000     4.486000000
