158
-3021.39956
C     0.339000000    -0.401000000    -1.350000000
H     0.470000000    -0.489000000    -2.426000000
C     0.714000000     0.802000000    -0.773000000
H     1.164000000     1.533000000    -1.440000000
C     0.336000000     1.085000000     0.544000000
H     0.590000000     2.028000000     0.929000000
C    -0.339000000     0.102000000     1.287000000
H    -0.557000000     0.276000000     2.338000000
C    -0.600000000    -1.171000000     0.738000000
H    -1.164000000    -1.930000000     1.273000000
C    -0.303000000    -1.418000000    -0.637000000
C    -0.758000000    -2.665000000    -1.333000000
O    -0.414000000    -3.061000000    -2.447000000
O    -1.280000000    -3.515000000    -0.613000000
O    -0.032000000     2.139000000     6.029000000
H     0.372000000     1.276000000     6.110000000
H     0.535000000     2.614000000     5.421000000
O     5.213000000     3.257000000    -2.017000000
H     5.245000000     2.313000000    -2.168000000
H     6.079000000     3.572000000    -2.279000000
O    -0.191000000    -4.069000000    -6.449000000
H    -0.131000000    -3.386000000    -5.782000000
H    -1.056000000    -4.458000000    -6.318000000
O    -3.932000000    -6.951000000    -0.194000000
H    -3.561000000    -6.754000000    -1.054000000
H    -4.812000000    -7.277000000    -0.381000000
O    -3.368000000     3.765000000     1.853000000
H    -3.169000000     4.459000000     2.482000000
H    -2.932000000     4.040000000     1.047000000
O     0.196000000    -4.600000000     1.538000000
H    -0.317000000    -5.387000000     1.720000000
H    -0.207000000    -4.227000000     0.754000000
O    -4.670000000     2.036000000    -0.406000000
H    -4.604000000     2.871000000     0.056000000
H    -5.137000000     1.462000000     0.201000000
O     4.456000000    -1.157000000     0.170000000
H     4.484000000    -0.857000000     1.079000000
H     5.137000000    -1.828000000     0.118000000
O     1.554000000     5.085000000    -4.380000000
H     2.369000000     5.151000000    -4.878000000
H     1.747000000     4.451000000    -3.689000000
O     2.951000000    -2.632000000    -1.631000000
H     2.339000000    -2.410000000    -2.333000000
H     3.360000000    -1.798000000    -1.399000000
O    -3.439000000    -2.756000000     3.099000000
H    -2.990000000    -1.930000000     3.282000000
H    -3.693000000    -2.691000000     2.178000000
O     1.297000000     4.786000000     1.082000000
H     1.140000000     4.353000000     1.920000000
H     1.606000000     4.088000000     0.505000000
O     4.468000000     0.461000000    -2.071000000
H     4.374000000     0.052000000    -1.211000000
H     5.402000000     0.392000000    -2.269000000
O    -2.592000000    -6.307000000     2.273000000
H    -2.553000000    -6.695000000     1.399000000
H    -3.499000000    -6.437000000     2.552000000
O    -5.242000000    -4.306000000     1.283000000
H    -4.908000000    -3.579000000     0.757000000
H    -4.656000000    -5.036000000     1.082000000
O     0.933000000     3.846000000     3.532000000
H     0.865000000     4.739000000     3.870000000
H     1.744000000     3.508000000     3.911000000
O     1.073000000    -1.352000000     3.538000000
H     0.575000000    -0.964000000     2.818000000
H     1.856000000    -1.712000000     3.121000000
O    -0.545000000     1.248000000    -5.488000000
H    -0.394000000     1.865000000    -6.204000000
H    -0.019000000     1.587000000    -4.764000000
O     2.313000000    -3.110000000     1.519000000
H     2.536000000    -3.014000000     0.593000000
H     1.661000000    -3.810000000     1.537000000
O     4.621000000    -4.317000000    -3.234000000
H     3.894000000    -3.881000000    -2.791000000
H     5.405000000    -3.935000000    -2.840000000
O    -2.781000000    -0.237000000     3.970000000
H    -2.513000000    -0.324000000     4.885000000
H    -3.319000000     0.555000000     3.952000000
O     2.903000000     3.151000000     5.179000000
H     2.950000000     3.213000000     6.133000000
H     3.788000000     3.363000000     4.882000000
O     2.442000000     2.091000000    -3.725000000
H     2.806000000     1.868000000    -4.582000000
H     2.829000000     1.452000000    -3.127000000
O     4.125000000    -0.850000000     4.698000000
H     4.212000000    -0.169000000     4.031000000
H     4.748000000    -0.598000000     5.380000000
O     0.950000000    -0.752000000     6.232000000
H     1.117000000    -1.020000000     5.328000000
H     0.020000000    -0.935000000     6.367000000
O     6.052000000     0.818000000     2.049000000
H     5.132000000     1.062000000     1.943000000
H     6.531000000     1.458000000     1.524000000
O    -3.942000000    -2.874000000    -4.993000000
H    -3.140000000    -3.390000000    -5.075000000
H    -3.853000000    -2.423000000    -4.153000000
O    -1.894000000    -4.708000000     4.337000000
H    -2.097000000    -5.452000000     3.770000000
H    -2.357000000    -3.971000000     3.938000000
O     4.784000000     4.399000000     3.557000000
H     5.737000000     4.345000000     3.624000000
H     4.623000000     4.682000000     2.657000000
O     0.849000000     6.259000000    -1.431000000
H     0.907000000     5.894000000    -0.548000000
H     1.702000000     6.074000000    -1.824000000
O     0.016000000    -8.474000000     0.003000000
H    -0.101000000    -7.635000000    -0.443000000
H    -0.650000000    -9.044000000    -0.380000000
O     2.453000000     3.579000000    -1.431000000
H     3.384000000     3.670000000    -1.637000000
H     2.140000000     2.900000000    -2.029000000
O    -2.843000000     2.386000000     5.753000000
H    -2.012000000     2.122000000     6.148000000
H    -2.605000000     2.704000000     4.883000000
O    -0.519000000    -6.063000000    -1.103000000
H     0.091000000    -5.645000000    -1.711000000
H    -0.924000000    -5.336000000    -0.631000000
O    -5.014000000     2.443000000     3.519000000
H    -5.455000000     1.638000000     3.248000000
H    -4.563000000     2.746000000     2.731000000
O    -0.581000000    -7.898000000    -4.155000000
H     0.121000000    -8.312000000    -4.657000000
H    -0.221000000    -7.049000000    -3.896000000
O    -2.507000000     4.501000000    -0.484000000
H    -2.056000000     3.826000000    -0.991000000
H    -2.542000000     5.257000000    -1.070000000
O     5.495000000     4.870000000     0.819000000
H     6.251000000     4.283000000     0.824000000
H     5.193000000     4.864000000    -0.090000000
O     2.870000000     7.115000000     1.546000000
H     2.452000000     6.262000000     1.426000000
H     3.580000000     7.127000000     0.904000000
O    -2.070000000    -4.712000000    -3.769000000
H    -1.493000000    -4.179000000    -3.222000000
H    -1.955000000    -5.604000000    -3.441000000
O     3.464000000     1.429000000     2.339000000
H     3.532000000     2.141000000     2.974000000
H     2.531000000     1.217000000     2.314000000
O     0.796000000    -4.008000000     4.844000000
H    -0.159000000    -3.971000000     4.792000000
H     1.096000000    -3.449000000     4.127000000
O    -0.680000000    -1.532000000    -5.182000000
H    -0.238000000    -0.695000000    -5.323000000
H    -1.316000000    -1.353000000    -4.489000000
O     1.039000000    -5.283000000    -3.334000000
H     1.807000000    -5.011000000    -3.836000000
H     0.661000000    -4.465000000    -3.012000000
O     1.894000000    -2.703000000    -4.405000000
H     1.086000000    -2.490000000    -3.938000000
H     1.855000000    -2.178000000    -5.204000000
O    -3.717000000    -2.662000000     0.081000000
H    -4.030000000    -2.100000000    -0.628000000
H    -2.936000000    -3.085000000    -0.275000000
O    -2.272000000     1.044000000    -1.774000000
H    -1.615000000     0.811000000    -1.118000000
H    -3.080000000     1.157000000    -1.273000000
O    -3.045000000    -1.147000000    -3.294000000
H    -2.545000000    -0.436000000    -2.895000000
H    -3.938000000    -0.808000000    -3.354000000
