158
-3025.75146
C     1.080000000    -1.043000000     0.017000000
H     1.916000000    -1.737000000    -0.004000000
C     1.190000000     0.252000000    -0.500000000
H     2.149000000     0.518000000    -0.937000000
C     0.138000000     1.136000000    -0.480000000
H     0.233000000     2.178000000    -0.812000000
C    -1.067000000     0.721000000     0.064000000
H    -1.815000000     1.509000000     0.067000000
C    -1.228000000    -0.535000000     0.522000000
H    -2.106000000    -0.869000000     1.068000000
C    -0.160000000    -1.424000000     0.556000000
C    -0.304000000    -2.761000000     1.269000000
O     0.366000000    -3.726000000     0.942000000
O    -1.230000000    -3.046000000     1.980000000
O     5.149000000    -3.174000000     0.961000000
H     5.206000000    -2.228000000     1.093000000
H     4.855000000    -3.272000000     0.055000000
O    -2.817000000    -5.448000000     4.651000000
H    -2.186000000    -5.451000000     3.932000000
H    -3.553000000    -4.931000000     4.322000000
O     2.152000000     7.569000000    -2.504000000
H     1.439000000     8.147000000    -2.778000000
H     1.781000000     7.055000000    -1.787000000
O    -3.085000000    -6.203000000    -0.809000000
H    -2.868000000    -6.312000000     0.117000000
H    -3.196000000    -5.258000000    -0.919000000
O    -0.713000000     0.736000000    -4.043000000
H     0.149000000     1.071000000    -3.797000000
H    -1.330000000     1.366000000    -3.671000000
O     4.702000000    -0.216000000    -1.450000000
H     5.562000000     0.184000000    -1.575000000
H     4.630000000    -0.337000000    -0.503000000
O     2.342000000    -1.662000000    -2.666000000
H     3.129000000    -1.202000000    -2.373000000
H     2.668000000    -2.342000000    -3.255000000
O     2.399000000     0.528000000     2.586000000
H     2.706000000     1.418000000     2.415000000
H     1.640000000     0.422000000     2.012000000
O     2.259000000     4.045000000    -0.976000000
H     2.806000000     3.309000000    -0.701000000
H     2.882000000     4.734000000    -1.207000000
O     0.372000000    -2.389000000     5.879000000
H    -0.060000000    -1.946000000     5.149000000
H     0.875000000    -3.093000000     5.469000000
O    -4.120000000    -0.729000000     2.913000000
H    -4.802000000    -0.418000000     2.317000000
H    -4.243000000    -1.677000000     2.944000000
O     5.514000000     3.953000000    -2.109000000
H     5.048000000     3.546000000    -2.839000000
H     5.294000000     3.411000000    -1.351000000
O    -2.336000000     4.764000000     0.244000000
H    -3.016000000     4.146000000     0.512000000
H    -1.515000000     4.297000000     0.394000000
O     4.447000000     2.840000000     0.261000000
H     4.805000000     2.219000000     0.895000000
H     4.499000000     3.688000000     0.701000000
O    -6.140000000    -0.163000000     0.777000000
H    -7.054000000     0.108000000     0.691000000
H    -6.153000000    -1.106000000     0.611000000
O     0.801000000    -7.704000000     0.985000000
H     1.219000000    -7.847000000     1.834000000
H     0.932000000    -8.526000000     0.512000000
O    -2.566000000     2.266000000    -2.987000000
H    -2.755000000     3.176000000    -3.215000000
H    -3.282000000     2.012000000    -2.404000000
O    -2.643000000    -1.188000000    -3.756000000
H    -3.093000000    -0.777000000    -3.017000000
H    -2.185000000    -0.468000000    -4.188000000
O     2.656000000     3.183000000     2.679000000
H     1.993000000     3.415000000     2.029000000
H     2.155000000     2.961000000     3.464000000
O    -3.498000000     2.225000000     1.888000000
H    -2.738000000     2.534000000     2.381000000
H    -3.605000000     1.313000000     2.158000000
O    -0.082000000     6.463000000    -1.081000000
H    -0.469000000     6.644000000    -0.224000000
H    -0.670000000     5.820000000    -1.477000000
O     1.414000000     2.277000000    -3.280000000
H     2.124000000     2.803000000    -3.647000000
H     1.347000000     2.567000000    -2.370000000
O    -0.286000000    -2.319000000    -2.451000000
H     0.617000000    -2.014000000    -2.369000000
H    -0.733000000    -1.621000000    -2.930000000
O     1.468000000    -5.576000000    -0.606000000
H     0.914000000    -4.978000000    -0.104000000
H     1.330000000    -6.430000000    -0.197000000
O     2.927000000    -2.103000000     4.056000000
H     3.000000000    -2.862000000     3.478000000
H     2.463000000    -1.448000000     3.534000000
O    -1.627000000    -1.306000000     3.973000000
H    -2.535000000    -1.233000000     3.680000000
H    -1.235000000    -1.949000000     3.382000000
O    -2.758000000     7.615000000    -0.316000000
H    -2.193000000     8.002000000     0.352000000
H    -2.805000000     6.688000000    -0.082000000
O     3.940000000     2.751000000    -4.268000000
H     3.956000000     1.804000000    -4.405000000
H     4.481000000     3.105000000    -4.973000000
O    -6.090000000    -2.815000000     0.384000000
H    -5.247000000    -2.944000000     0.819000000
H    -6.336000000    -3.687000000     0.075000000
O     1.518000000     5.483000000    -4.338000000
H     0.596000000     5.274000000    -4.486000000
H     1.508000000     6.368000000    -3.973000000
O    -0.917000000    -8.257000000    -1.709000000
H    -0.648000000    -7.426000000    -1.318000000
H    -0.162000000    -8.833000000    -1.593000000
O     1.098000000    -4.483000000    -3.089000000
H     0.678000000    -3.650000000    -2.877000000
H     1.201000000    -4.922000000    -2.244000000
O    -4.406000000     2.157000000    -0.759000000
H    -5.348000000     2.316000000    -0.704000000
H    -4.073000000     2.392000000     0.108000000
O     2.403000000     2.865000000    -6.943000000
H     1.908000000     3.507000000    -7.454000000
H     2.212000000     3.086000000    -6.032000000
O    -4.062000000    -0.563000000    -1.505000000
H    -3.372000000    -0.141000000    -0.993000000
H    -4.855000000    -0.444000000    -0.982000000
O    -1.161000000    -4.874000000     6.822000000
H    -1.910000000    -5.140000000     6.289000000
H    -0.640000000    -4.319000000     6.242000000
O    -4.604000000    -1.117000000     5.653000000
H    -5.313000000    -1.678000000     5.337000000
H    -4.161000000    -0.820000000     4.858000000
O    -0.122000000     6.727000000     2.068000000
H     0.106000000     7.598000000     1.742000000
H     0.482000000     6.579000000     2.796000000
O     2.614000000    -4.370000000     2.337000000
H     1.784000000    -4.384000000     1.861000000
H     3.266000000    -4.638000000     1.689000000
O     3.749000000    -3.861000000    -1.350000000
H     3.217000000    -3.075000000    -1.470000000
H     3.213000000    -4.433000000    -0.799000000
O     0.262000000    -0.869000000    -6.323000000
H     0.738000000    -1.624000000    -5.977000000
H     0.027000000    -0.359000000    -5.547000000
O    -3.773000000    -3.631000000     2.001000000
H    -3.994000000    -4.555000000     1.886000000
H    -2.824000000    -3.595000000     1.883000000
O    -1.815000000     3.464000000     3.627000000
H    -1.755000000     4.356000000     3.286000000
H    -0.905000000     3.173000000     3.695000000
O     4.899000000    -0.366000000     1.149000000
H     4.181000000     0.050000000     1.626000000
H     5.567000000    -0.528000000     1.816000000
O    -1.354000000    -5.945000000     1.707000000
H    -0.928000000    -5.101000000     1.555000000
H    -0.739000000    -6.589000000     1.357000000
O     1.049000000    -4.431000000     4.584000000
H     0.834000000    -5.364000000     4.597000000
H     1.562000000    -4.314000000     3.784000000
O     0.202000000     4.244000000     0.863000000
H     0.949000000     4.241000000     0.263000000
H     0.112000000     5.159000000     1.128000000
O    -3.179000000    -3.293000000    -1.327000000
H    -2.278000000    -3.087000000    -1.576000000
H    -3.644000000    -2.459000000    -1.400000000
