158
-3032.31545
C     0.598000000    -1.274000000    -0.392000000
H     1.184000000    -2.164000000    -0.608000000
C     0.957000000    -0.066000000    -0.982000000
H     1.693000000     0.019000000    -1.777000000
C     0.286000000     1.096000000    -0.491000000
H     0.537000000     2.091000000    -0.820000000
C    -0.818000000     1.000000000     0.339000000
H    -1.359000000     1.883000000     0.670000000
C    -1.115000000    -0.207000000     0.926000000
H    -1.961000000    -0.301000000     1.603000000
C    -0.451000000    -1.362000000     0.522000000
C    -0.828000000    -2.707000000     1.178000000
O    -0.410000000    -3.762000000     0.745000000
O    -1.739000000    -2.719000000     2.012000000
O     3.949000000    -1.674000000     1.443000000
H     4.337000000    -0.832000000     1.682000000
H     3.749000000    -1.589000000     0.511000000
O    -0.652000000    -3.598000000     4.414000000
H    -1.257000000    -3.203000000     3.787000000
H    -0.497000000    -4.479000000     4.074000000
O    -4.870000000    -4.625000000    -0.246000000
H    -5.367000000    -5.229000000    -0.797000000
H    -4.534000000    -3.967000000    -0.855000000
O    -1.816000000     2.093000000    -2.799000000
H    -0.971000000     2.457000000    -3.062000000
H    -2.134000000     2.689000000    -2.122000000
O     2.639000000    -4.520000000    -3.134000000
H     1.791000000    -4.169000000    -3.404000000
H     3.268000000    -4.114000000    -3.731000000
O    -3.381000000    -8.081000000    -0.199000000
H    -2.745000000    -7.546000000     0.276000000
H    -3.594000000    -7.566000000    -0.977000000
O     5.787000000     1.212000000    -2.055000000
H     5.341000000     0.878000000    -2.834000000
H     5.111000000     1.697000000    -1.582000000
O     4.711000000     0.929000000     2.184000000
H     4.138000000     1.395000000     2.793000000
H     5.562000000     0.911000000     2.623000000
O     2.049000000     3.952000000     1.984000000
H     2.283000000     4.097000000     2.900000000
H     2.112000000     4.818000000     1.580000000
O     2.600000000     6.712000000    -3.758000000
H     2.139000000     7.381000000    -3.253000000
H     2.738000000     5.996000000    -3.138000000
O     1.244000000     0.927000000     2.705000000
H     0.969000000     0.811000000     1.796000000
H     1.452000000     1.859000000     2.775000000
O    -6.202000000    -0.452000000     2.199000000
H    -6.500000000    -1.306000000     2.514000000
H    -6.976000000     0.108000000     2.256000000
O    -0.181000000    -6.233000000     3.305000000
H    -0.132000000    -7.063000000     3.779000000
H    -0.898000000    -6.354000000     2.683000000
O    -1.540000000     4.584000000     1.105000000
H    -0.934000000     5.293000000     0.888000000
H    -1.156000000     4.169000000     1.878000000
O     2.910000000     5.117000000    -1.512000000
H     2.627000000     4.524000000    -2.208000000
H     3.821000000     4.875000000    -1.345000000
O    -0.494000000    -7.128000000    -1.021000000
H     0.235000000    -7.737000000    -0.908000000
H    -0.857000000    -7.344000000    -1.880000000
O    -2.735000000     4.187000000    -1.411000000
H    -2.240000000     3.998000000    -0.614000000
H    -3.348000000     4.876000000    -1.155000000
O    -1.222000000    -0.326000000    -5.443000000
H    -2.071000000    -0.671000000    -5.721000000
H    -0.868000000    -1.000000000    -4.863000000
O    -3.264000000     5.192000000    -3.877000000
H    -3.834000000     4.437000000    -4.025000000
H    -2.701000000     4.929000000    -3.149000000
O    -3.912000000     1.464000000    -4.336000000
H    -4.490000000     1.758000000    -3.632000000
H    -3.031000000     1.668000000    -4.024000000
O    -5.094000000     2.352000000    -0.756000000
H    -4.673000000     2.862000000    -0.064000000
H    -4.837000000     1.447000000    -0.577000000
O     1.603000000    -3.383000000     5.665000000
H     1.958000000    -2.705000000     5.091000000
H     0.814000000    -3.687000000     5.217000000
O    -0.577000000     7.158000000    -0.855000000
H     0.152000000     6.925000000    -0.280000000
H    -1.245000000     7.507000000    -0.265000000
O    -0.772000000     3.934000000     3.703000000
H    -0.848000000     4.885000000     3.781000000
H     0.126000000     3.743000000     3.973000000
O     0.755000000     2.785000000    -3.883000000
H     1.663000000     3.068000000    -3.992000000
H     0.812000000     1.838000000    -3.758000000
O    -6.947000000    -3.254000000     3.082000000
H    -7.404000000    -4.040000000     2.784000000
H    -6.023000000    -3.434000000     2.910000000
O    -0.169000000    -1.766000000    -3.566000000
H    -0.652000000    -1.215000000    -2.951000000
H    -0.099000000    -2.613000000    -3.125000000
O     0.003000000    -4.207000000    -2.181000000
H    -0.182000000    -4.121000000    -1.246000000
H    -0.280000000    -5.095000000    -2.400000000
O     2.500000000    -1.162000000     3.949000000
H     2.114000000    -0.322000000     3.701000000
H     2.883000000    -1.498000000     3.138000000
O    -3.339000000    -0.636000000     3.672000000
H    -4.294000000    -0.635000000     3.598000000
H    -3.050000000    -1.273000000     3.019000000
O     3.340000000     3.808000000    -4.182000000
H     3.456000000     3.276000000    -4.969000000
H     4.231000000     4.025000000    -3.906000000
O    -4.119000000    -0.676000000     0.081000000
H    -4.523000000    -0.703000000     0.949000000
H    -4.081000000    -1.592000000    -0.194000000
O    -1.267000000    -0.036000000     5.264000000
H    -0.459000000     0.110000000     4.772000000
H    -1.876000000    -0.400000000     4.622000000
O    -3.580000000    -2.926000000    -2.328000000
H    -4.264000000    -2.655000000    -2.940000000
H    -2.835000000    -2.363000000    -2.537000000
O     3.376000000     7.342000000    -0.277000000
H     3.938000000     7.776000000    -0.919000000
H     3.112000000     6.526000000    -0.702000000
O    -1.852000000    -2.360000000     6.691000000
H    -1.444000000    -3.065000000     6.188000000
H    -1.483000000    -1.558000000     6.322000000
O    -3.685000000    -6.361000000     2.990000000
H    -4.053000000    -5.485000000     2.879000000
H    -2.912000000    -6.370000000     2.425000000
O     4.219000000    -4.502000000     0.708000000
H     3.350000000    -4.821000000     0.950000000
H     4.186000000    -3.561000000     0.878000000
O     4.377000000    -0.063000000    -3.617000000
H     4.903000000    -0.637000000    -4.174000000
H     3.500000000    -0.095000000    -3.999000000
O    -4.192000000    -3.948000000     2.172000000
H    -4.259000000    -4.236000000     1.262000000
H    -3.294000000    -3.629000000     2.257000000
O    -4.218000000     3.763000000     1.637000000
H    -3.266000000     3.747000000     1.739000000
H    -4.439000000     4.693000000     1.595000000
O     3.760000000     2.408000000    -0.038000000
H     3.117000000     2.897000000     0.476000000
H     4.193000000     1.840000000     0.599000000
O    -1.757000000    -5.908000000     1.139000000
H    -1.424000000    -5.021000000     1.001000000
H    -1.326000000    -6.433000000     0.464000000
O     1.615000000    -5.355000000     1.324000000
H     1.278000000    -5.418000000     2.218000000
H     1.063000000    -4.695000000     0.905000000
O     2.646000000    -7.999000000     1.041000000
H     2.112000000    -8.433000000     0.376000000
H     2.454000000    -7.067000000     0.932000000
O     1.218000000     6.639000000     1.019000000
H     1.904000000     7.192000000     0.645000000
H     1.183000000     6.893000000     1.941000000
O     1.679000000     0.096000000    -4.796000000
H     1.172000000    -0.123000000    -5.578000000
H     1.313000000    -0.461000000    -4.110000000
O    -2.341000000    -0.395000000    -2.230000000
H    -2.162000000     0.515000000    -2.468000000
H    -2.542000000    -0.363000000    -1.295000000
