158
-3032.88221
C     0.555000000    -1.381000000    -0.079000000
H     0.940000000    -2.396000000    -0.138000000
C     0.648000000    -0.429000000    -1.084000000
H     1.132000000    -0.767000000    -1.997000000
C     0.152000000     0.822000000    -0.870000000
H     0.311000000     1.579000000    -1.632000000
C    -0.545000000     1.148000000     0.310000000
H    -0.911000000     2.170000000     0.356000000
C    -0.604000000     0.199000000     1.346000000
H    -1.152000000     0.464000000     2.247000000
C    -0.055000000    -1.057000000     1.139000000
C    -0.266000000    -2.094000000     2.229000000
O     0.435000000    -3.087000000     2.257000000
O    -1.006000000    -1.812000000     3.195000000
O     3.508000000    -2.661000000     4.053000000
H     3.129000000    -2.015000000     4.649000000
H     3.836000000    -2.143000000     3.317000000
O     4.798000000    -5.319000000    -1.709000000
H     4.011000000    -5.858000000    -1.786000000
H     4.501000000    -4.431000000    -1.905000000
O    -5.457000000     1.482000000    -2.638000000
H    -5.085000000     0.626000000    -2.849000000
H    -6.010000000     1.322000000    -1.873000000
O    -3.115000000    -4.608000000     1.759000000
H    -2.317000000    -5.087000000     1.981000000
H    -3.206000000    -4.718000000     0.813000000
O    -0.202000000    -5.982000000    -1.308000000
H    -0.596000000    -6.174000000    -0.458000000
H    -0.343000000    -5.043000000    -1.432000000
O    -1.143000000     1.530000000    -4.400000000
H    -1.737000000     2.272000000    -4.291000000
H    -0.322000000     1.821000000    -4.003000000
O     4.365000000    -1.064000000     2.069000000
H     3.785000000    -0.316000000     2.216000000
H     4.988000000    -0.758000000     1.411000000
O    -3.196000000     5.126000000    -5.668000000
H    -3.267000000     4.815000000    -4.765000000
H    -3.468000000     4.378000000    -6.200000000
O     0.670000000    -2.607000000    -4.288000000
H     1.077000000    -2.080000000    -4.975000000
H     0.523000000    -3.461000000    -4.695000000
O     0.407000000     4.148000000    -5.815000000
H     0.272000000     4.988000000    -5.376000000
H     0.132000000     4.302000000    -6.718000000
O     2.355000000    -0.854000000     5.494000000
H     1.412000000    -0.859000000     5.328000000
H     2.605000000     0.067000000     5.420000000
O    -3.175000000     3.117000000    -3.401000000
H    -2.592000000     3.114000000    -2.641000000
H    -3.969000000     2.680000000    -3.095000000
O     0.503000000     4.262000000     0.051000000
H     0.952000000     4.313000000     0.895000000
H     1.106000000     3.776000000    -0.512000000
O    -0.159000000    -2.901000000     7.226000000
H    -0.094000000    -2.046000000     6.800000000
H    -0.173000000    -3.528000000     6.503000000
O    -5.894000000     0.557000000     1.889000000
H    -6.661000000     0.040000000     2.135000000
H    -5.151000000     0.065000000     2.240000000
O     5.186000000     3.810000000    -1.486000000
H     4.816000000     3.838000000    -0.603000000
H     4.457000000     4.049000000    -2.058000000
O    -0.480000000     1.295000000    -6.996000000
H    -1.276000000     0.926000000    -6.614000000
H     0.066000000     1.519000000    -6.243000000
O    -4.533000000     4.201000000     1.310000000
H    -4.770000000     3.542000000     1.963000000
H    -4.441000000     5.012000000     1.810000000
O    -0.693000000     5.860000000    -1.707000000
H    -1.553000000     5.992000000    -1.307000000
H    -0.234000000     5.277000000    -1.102000000
O    -4.206000000    -1.158000000    -2.828000000
H    -4.527000000    -2.027000000    -3.067000000
H    -3.259000000    -1.208000000    -2.959000000
O     1.238000000     2.110000000     3.429000000
H     1.246000000     3.006000000     3.094000000
H     0.450000000     2.064000000     3.971000000
O    -4.417000000     3.075000000     3.857000000
H    -4.938000000     3.710000000     4.347000000
H    -4.956000000     2.284000000     3.842000000
O    -1.232000000     6.181000000     2.727000000
H    -1.048000000     6.280000000     1.792000000
H    -2.073000000     6.620000000     2.853000000
O     4.109000000    -0.359000000    -2.216000000
H     3.342000000    -0.140000000    -1.688000000
H     4.566000000    -1.031000000    -1.709000000
O    -0.609000000    -3.474000000    -1.790000000
H    -0.774000000    -3.166000000    -2.681000000
H    -1.160000000    -2.919000000    -1.238000000
O     2.635000000    -4.230000000     0.968000000
H     1.874000000    -3.838000000     1.396000000
H     2.617000000    -5.147000000     1.240000000
O    -0.626000000    -0.646000000     5.608000000
H    -0.822000000     0.286000000     5.509000000
H    -0.854000000    -1.030000000     4.762000000
O     3.857000000     2.922000000    -4.404000000
H     4.794000000     3.023000000    -4.233000000
H     3.811000000     2.291000000    -5.122000000
O     2.653000000     4.750000000    -2.271000000
H     2.394000000     5.659000000    -2.421000000
H     2.121000000     4.245000000    -2.886000000
O    -0.095000000     6.439000000    -4.177000000
H    -0.529000000     7.292000000    -4.207000000
H    -0.148000000     6.175000000    -3.259000000
O     2.056000000    -5.462000000    -2.904000000
H     2.071000000    -4.542000000    -3.168000000
H     1.362000000    -5.512000000    -2.247000000
O     1.243000000     2.533000000    -3.886000000
H     1.015000000     3.176000000    -4.558000000
H     2.199000000     2.490000000    -3.910000000
O    -5.231000000    -1.905000000     5.245000000
H    -4.985000000    -2.233000000     4.380000000
H    -6.185000000    -1.981000000     5.267000000
O    -2.906000000    -1.641000000    -0.167000000
H    -2.896000000    -1.302000000     0.728000000
H    -2.489000000    -0.955000000    -0.688000000
O    -3.602000000    -3.931000000     6.153000000
H    -4.215000000    -3.197000000     6.118000000
H    -2.832000000    -3.623000000     5.675000000
O    -4.897000000    -2.996000000     2.988000000
H    -4.246000000    -3.504000000     2.504000000
H    -5.718000000    -3.151000000     2.521000000
O    -3.534000000    -0.190000000     6.656000000
H    -4.149000000    -0.631000000     6.070000000
H    -3.099000000     0.459000000     6.102000000
O     1.836000000    -4.489000000     4.479000000
H     1.042000000    -4.058000000     4.162000000
H     2.547000000    -3.902000000     4.221000000
O     4.167000000    -0.945000000    -5.047000000
H     4.031000000    -0.249000000    -5.690000000
H     4.045000000    -0.516000000    -4.200000000
O     4.956000000    -2.940000000    -0.135000000
H     4.797000000    -2.348000000     0.600000000
H     4.211000000    -3.541000000    -0.124000000
O    -1.609000000    -1.048000000    -3.583000000
H    -0.709000000    -1.250000000    -3.839000000
H    -1.749000000    -0.150000000    -3.885000000
O    -3.488000000    -0.730000000     2.719000000
H    -3.696000000    -1.664000000     2.692000000
H    -2.629000000    -0.687000000     3.138000000
O     4.259000000    -3.600000000    -4.434000000
H     4.347000000    -3.950000000    -5.321000000
H     4.103000000    -2.664000000    -4.561000000
O    -2.257000000     1.470000000     4.825000000
H    -2.768000000     1.893000000     4.135000000
H    -2.078000000     2.170000000     5.453000000
O     2.601000000     1.214000000     1.061000000
H     1.777000000     0.740000000     0.945000000
H     2.377000000     1.946000000     1.635000000
O    -0.639000000    -5.648000000     2.607000000
H    -0.037000000    -4.912000000     2.496000000
H    -0.101000000    -6.424000000     2.451000000
O    -1.175000000    -3.939000000     4.725000000
H    -1.075000000    -4.774000000     4.268000000
H    -1.094000000    -3.278000000     4.038000000
O     1.072000000     4.747000000     2.874000000
H     0.166000000     5.055000000     2.906000000
H     1.595000000     5.548000000     2.829000000
