158
-3030.95206
C     0.833000000    -1.219000000    -0.155000000
H     1.484000000    -2.043000000    -0.436000000
C     1.100000000     0.061000000    -0.620000000
H     2.058000000     0.267000000    -1.092000000
C     0.181000000     1.105000000    -0.529000000
H     0.407000000     2.065000000    -0.960000000
C    -0.972000000     0.925000000     0.310000000
H    -1.723000000     1.708000000     0.377000000
C    -1.188000000    -0.329000000     0.885000000
H    -2.061000000    -0.476000000     1.516000000
C    -0.324000000    -1.386000000     0.617000000
C    -0.655000000    -2.779000000     1.107000000
O     0.110000000    -3.731000000     0.969000000
O    -1.547000000    -2.946000000     1.915000000
O     5.510000000    -0.348000000    -0.465000000
H     4.716000000    -0.827000000    -0.704000000
H     5.202000000     0.531000000    -0.246000000
O    -1.151000000    -1.560000000     4.164000000
H    -1.160000000    -1.980000000     3.304000000
H    -2.074000000    -1.399000000     4.361000000
O    -3.753000000    -5.244000000    -0.540000000
H    -4.661000000    -5.535000000    -0.458000000
H    -3.588000000    -5.235000000    -1.483000000
O    -1.805000000     3.489000000    -4.264000000
H    -2.018000000     3.612000000    -3.338000000
H    -0.864000000     3.312000000    -4.272000000
O     4.080000000     2.832000000    -3.089000000
H     4.012000000     3.537000000    -2.445000000
H     3.575000000     2.112000000    -2.710000000
O     0.240000000     6.584000000     1.519000000
H    -0.043000000     7.469000000     1.750000000
H     1.177000000     6.670000000     1.342000000
O     0.198000000    -4.297000000     3.716000000
H    -0.324000000    -4.039000000     2.957000000
H     1.102000000    -4.114000000     3.459000000
O     2.097000000     3.972000000     1.832000000
H     2.274000000     4.576000000     1.112000000
H     2.132000000     4.518000000     2.617000000
O    -5.115000000     1.907000000    -0.944000000
H    -5.190000000     1.564000000    -0.053000000
H    -5.856000000     1.520000000    -1.412000000
O     1.636000000    -5.946000000     1.689000000
H     1.086000000    -5.251000000     1.326000000
H     1.034000000    -6.486000000     2.200000000
O    -2.643000000     5.098000000     0.241000000
H    -2.513000000     5.910000000    -0.249000000
H    -1.905000000     5.066000000     0.850000000
O     2.538000000     5.532000000    -3.151000000
H     2.062000000     6.348000000    -2.992000000
H     2.869000000     5.618000000    -4.045000000
O    -4.636000000    -4.483000000     5.317000000
H    -4.058000000    -3.724000000     5.395000000
H    -4.965000000    -4.625000000     6.205000000
O    -3.289000000     3.558000000    -2.024000000
H    -3.066000000     4.058000000    -1.238000000
H    -3.984000000     2.965000000    -1.740000000
O     0.691000000     2.930000000    -3.844000000
H     1.421000000     2.387000000    -3.548000000
H     1.087000000     3.779000000    -4.039000000
O    -5.804000000    -1.583000000     3.046000000
H    -5.140000000    -1.610000000     3.735000000
H    -5.485000000    -2.195000000     2.382000000
O    -3.351000000     1.314000000     4.898000000
H    -3.370000000     1.804000000     4.076000000
H    -3.612000000     1.950000000     5.563000000
O    -1.024000000    -3.830000000     5.909000000
H    -0.463000000    -3.866000000     5.135000000
H    -1.376000000    -4.716000000     5.992000000
O    -2.366000000     0.921000000    -4.820000000
H    -2.103000000     0.559000000    -3.974000000
H    -2.308000000     1.869000000    -4.702000000
O    -6.805000000    -3.593000000     0.787000000
H    -6.810000000    -4.321000000     0.165000000
H    -5.878000000    -3.377000000     0.894000000
O     4.522000000    -0.417000000    -4.014000000
H     5.474000000    -0.391000000    -3.916000000
H     4.360000000    -1.173000000    -4.577000000
O    -0.353000000    -5.101000000    -4.249000000
H    -0.353000000    -5.281000000    -3.309000000
H    -1.024000000    -5.684000000    -4.604000000
O     2.946000000    -3.564000000     3.782000000
H     2.600000000    -2.681000000     3.908000000
H     3.198000000    -3.592000000     2.859000000
O    -3.707000000    -0.783000000    -0.835000000
H    -4.268000000    -0.075000000    -1.150000000
H    -3.877000000    -0.824000000     0.106000000
O     3.732000000     2.000000000    -5.937000000
H     4.459000000     1.378000000    -5.952000000
H     3.818000000     2.450000000    -5.097000000
O     1.131000000     1.193000000     2.386000000
H     1.329000000     2.122000000     2.271000000
H     0.644000000     0.952000000     1.598000000
O    -3.841000000    -1.347000000     4.873000000
H    -3.822000000    -0.401000000     4.730000000
H    -3.766000000    -1.448000000     5.822000000
O     2.578000000     5.911000000     0.013000000
H     2.058000000     5.724000000    -0.768000000
H     3.480000000     5.949000000    -0.303000000
O     1.786000000    -1.246000000     4.015000000
H     0.873000000    -1.506000000     4.140000000
H     1.819000000    -0.912000000     3.119000000
O    -2.034000000    -6.011000000     1.939000000
H    -1.861000000    -5.081000000     1.790000000
H    -2.496000000    -6.298000000     1.152000000
O     0.077000000     1.038000000     5.006000000
H     0.598000000     0.950000000     4.208000000
H    -0.155000000     0.140000000     5.241000000
O     3.774000000    -2.376000000    -1.449000000
H     4.057000000    -2.238000000    -2.353000000
H     3.340000000    -3.229000000    -1.461000000
O     0.330000000     1.266000000    -6.466000000
H     0.945000000     1.306000000    -5.733000000
H    -0.516000000     1.080000000    -6.059000000
O    -5.020000000     0.582000000     1.333000000
H    -5.566000000     0.075000000     1.934000000
H    -4.460000000     1.107000000     1.904000000
O    -4.301000000    -2.951000000     1.179000000
H    -3.845000000    -3.109000000     0.352000000
H    -3.636000000    -3.099000000     1.851000000
O     4.106000000    -5.978000000     0.702000000
H     4.438000000    -5.082000000     0.758000000
H     3.172000000    -5.900000000     0.896000000
O    -3.712000000     2.738000000     2.712000000
H    -2.960000000     3.060000000     2.215000000
H    -4.277000000     3.504000000     2.814000000
O     4.350000000     2.349000000     0.268000000
H     3.830000000     2.670000000     1.004000000
H     4.936000000     3.075000000     0.053000000
O     2.595000000    -4.818000000    -1.727000000
H     2.910000000    -5.554000000    -1.201000000
H     1.642000000    -4.911000000    -1.722000000
O    -0.235000000    -5.390000000    -1.204000000
H    -0.365000000    -4.806000000    -0.457000000
H    -0.441000000    -6.262000000    -0.866000000
O     3.937000000    -3.266000000     1.324000000
H     3.709000000    -2.774000000     0.535000000
H     4.624000000    -2.745000000     1.740000000
O    -0.110000000    -7.981000000    -0.314000000
H     0.493000000    -7.827000000     0.413000000
H    -0.171000000    -8.935000000    -0.376000000
O    -4.436000000    -6.256000000     3.283000000
H    -3.750000000    -6.015000000     2.660000000
H    -4.406000000    -5.569000000     3.949000000
O    -1.698000000     6.902000000    -1.431000000
H    -0.833000000     6.856000000    -1.839000000
H    -1.883000000     7.839000000    -1.366000000
O     1.949000000     0.122000000    -3.697000000
H     2.847000000    -0.201000000    -3.764000000
H     1.466000000    -0.596000000    -3.288000000
O    -2.511000000    -3.103000000    -3.299000000
H    -1.790000000    -3.716000000    -3.447000000
H    -2.080000000    -2.272000000    -3.098000000
O    -1.435000000    -0.513000000    -2.557000000
H    -0.704000000    -0.362000000    -1.957000000
H    -2.192000000    -0.636000000    -1.985000000
O    -0.790000000     3.723000000     1.817000000
H    -0.040000000     4.060000000     2.308000000
H    -0.421000000     3.446000000     0.978000000
