158
-3040.96197
C     0.687000000    -1.338000000    -0.070000000
H     1.266000000    -2.256000000    -0.132000000
C     0.596000000    -0.440000000    -1.120000000
H     1.059000000    -0.729000000    -2.059000000
C    -0.123000000     0.791000000    -0.982000000
H    -0.155000000     1.454000000    -1.811000000
C    -0.682000000     1.120000000     0.264000000
H    -1.271000000     2.032000000     0.336000000
C    -0.537000000     0.201000000     1.308000000
H    -0.994000000     0.447000000     2.263000000
C     0.151000000    -1.021000000     1.210000000
C     0.312000000    -1.887000000     2.420000000
O     1.065000000    -2.786000000     2.463000000
O    -0.523000000    -1.863000000     3.310000000
O    -0.964000000    -1.928000000     8.328000000
H    -1.404000000    -1.435000000     7.634000000
H    -0.039000000    -1.702000000     8.231000000
O     0.873000000    -4.409000000    -3.073000000
H     1.433000000    -4.335000000    -2.300000000
H     0.136000000    -3.825000000    -2.892000000
O    -3.796000000     4.832000000    -4.757000000
H    -3.277000000     4.541000000    -5.507000000
H    -3.696000000     4.133000000    -4.111000000
O     0.478000000    -6.754000000    -0.251000000
H     1.185000000    -6.513000000    -0.850000000
H     0.659000000    -7.665000000    -0.021000000
O     2.776000000     1.601000000     0.022000000
H     3.228000000     1.735000000    -0.811000000
H     2.022000000     1.055000000    -0.200000000
O    -1.481000000    -3.080000000    -2.171000000
H    -1.979000000    -2.974000000    -1.360000000
H    -1.925000000    -2.512000000    -2.800000000
O    -0.301000000    -4.517000000     6.987000000
H    -0.190000000    -3.704000000     7.480000000
H    -0.771000000    -4.255000000     6.195000000
O    -0.394000000     4.369000000     0.851000000
H    -1.018000000     4.583000000     1.544000000
H    -0.055000000     3.507000000     1.091000000
O     1.293000000     1.807000000     5.267000000
H     0.430000000     1.982000000     4.891000000
H     1.910000000     2.077000000     4.586000000
O    -4.719000000     0.644000000     1.962000000
H    -5.617000000     0.330000000     2.074000000
H    -4.713000000     1.047000000     1.094000000
O     0.020000000    -5.344000000     2.066000000
H     0.280000000    -5.808000000     1.270000000
H     0.390000000    -4.467000000     1.963000000
O    -0.567000000     1.170000000    -6.296000000
H     0.371000000     1.255000000    -6.467000000
H    -0.744000000     1.805000000    -5.603000000
O    -2.032000000     5.069000000     2.768000000
H    -2.667000000     5.575000000     2.262000000
H    -2.306000000     5.183000000     3.678000000
O    -2.768000000    -4.999000000     2.380000000
H    -3.240000000    -5.833000000     2.375000000
H    -1.856000000    -5.240000000     2.218000000
O     2.161000000     3.240000000     2.223000000
H     3.076000000     3.118000000     2.476000000
H     1.996000000     2.551000000     1.580000000
O    -2.033000000    -5.873000000    -1.101000000
H    -1.987000000    -4.918000000    -1.138000000
H    -1.143000000    -6.147000000    -0.879000000
O     4.582000000     4.618000000    -0.273000000
H     3.687000000     4.953000000    -0.231000000
H     4.482000000     3.695000000    -0.507000000
O     1.976000000     5.745000000    -0.303000000
H     1.251000000     5.511000000     0.276000000
H     1.573000000     6.276000000    -0.990000000
O    -1.088000000     2.446000000     4.327000000
H    -1.786000000     1.818000000     4.516000000
H    -1.548000000     3.246000000     4.072000000
O     2.226000000     0.921000000    -6.631000000
H     2.968000000     1.363000000    -7.043000000
H     2.104000000     0.125000000    -7.149000000
O     4.360000000    -1.569000000    -1.893000000
H     3.962000000    -1.874000000    -1.078000000
H     4.148000000    -2.249000000    -2.533000000
O    -2.843000000     0.260000000    -2.122000000
H    -2.279000000    -0.159000000    -1.472000000
H    -3.253000000     0.986000000    -1.652000000
O     3.445000000    -2.998000000     0.937000000
H     4.143000000    -3.638000000     1.076000000
H     2.814000000    -3.177000000     1.634000000
O    -1.366000000     2.725000000    -4.061000000
H    -1.603000000     3.501000000    -3.554000000
H    -1.605000000     1.989000000    -3.497000000
O     1.970000000    -3.496000000    -5.704000000
H     2.787000000    -3.099000000    -5.403000000
H     1.553000000    -3.821000000    -4.905000000
O     4.977000000    -5.355000000     1.410000000
H     5.820000000    -5.586000000     1.801000000
H     4.333000000    -5.833000000     1.933000000
O     1.917000000    -0.713000000     5.255000000
H     1.205000000    -1.232000000     4.883000000
H     1.528000000     0.146000000     5.419000000
O     4.397000000    -1.274000000     4.192000000
H     4.423000000    -0.778000000     3.374000000
H     3.602000000    -0.970000000     4.631000000
O    -1.957000000     4.781000000    -1.802000000
H    -1.683000000     5.696000000    -1.741000000
H    -1.687000000     4.393000000    -0.969000000
O     1.069000000    -6.297000000     5.388000000
H     1.173000000    -5.398000000     5.073000000
H     0.682000000    -6.203000000     6.258000000
O     1.631000000     1.982000000    -3.935000000
H     0.743000000     2.299000000    -4.104000000
H     1.889000000     1.547000000    -4.748000000
O    -2.735000000    -1.911000000    -4.503000000
H    -2.435000000    -1.850000000    -5.410000000
H    -3.690000000    -1.899000000    -4.566000000
O    -3.255000000     0.641000000     4.442000000
H    -3.559000000     0.644000000     3.534000000
H    -4.054000000     0.720000000     4.963000000
O     3.790000000     2.348000000    -2.309000000
H     4.444000000     1.774000000    -2.709000000
H     3.127000000     2.466000000    -2.989000000
O    -5.724000000    -3.144000000     2.502000000
H    -6.061000000    -2.306000000     2.186000000
H    -4.774000000    -3.072000000     2.407000000
O    -1.553000000    -4.008000000     4.717000000
H    -2.084000000    -4.313000000     3.982000000
H    -0.904000000    -3.427000000     4.319000000
O    -3.286000000    -1.821000000     2.586000000
H    -2.509000000    -1.818000000     3.144000000
H    -3.315000000    -0.941000000     2.211000000
O    -0.303000000     7.210000000    -1.807000000
H     0.048000000     8.032000000    -1.462000000
H     0.178000000     7.068000000    -2.623000000
O    -4.715000000     0.559000000    -4.009000000
H    -4.100000000     0.673000000    -3.285000000
H    -4.165000000     0.549000000    -4.792000000
O     3.455000000     5.275000000    -3.213000000
H     2.562000000     5.535000000    -3.440000000
H     3.401000000     5.012000000    -2.294000000
O     2.393000000    -4.088000000     4.735000000
H     2.887000000    -3.394000000     5.171000000
H     2.148000000    -3.712000000     3.889000000
O     4.343000000    -0.304000000     1.631000000
H     3.974000000    -1.129000000     1.316000000
H     4.119000000     0.333000000     0.953000000
O    -4.040000000     2.540000000    -1.526000000
H    -3.788000000     3.444000000    -1.712000000
H    -4.814000000     2.617000000    -0.968000000
O     2.562000000    -4.601000000    -1.079000000
H     3.413000000    -5.032000000    -1.162000000
H     2.725000000    -3.859000000    -0.496000000
O    -2.974000000    -3.060000000     0.354000000
H    -2.798000000    -3.810000000     0.922000000
H    -3.290000000    -2.379000000     0.949000000
O    -1.392000000    -0.935000000     5.769000000
H    -2.251000000    -0.565000000     5.568000000
H    -0.986000000    -1.075000000     4.913000000
O     3.287000000    -6.775000000     3.147000000
H     2.417000000    -6.478000000     3.413000000
H     3.226000000    -7.730000000     3.152000000
O    -3.785000000    -4.875000000     6.101000000
H    -4.141000000    -4.399000000     6.851000000
H    -3.104000000    -4.299000000     5.753000000
