158
-3023.18147
C     0.594000000    -1.343000000     0.181000000
H     1.001000000    -2.347000000     0.278000000
C     0.644000000    -0.592000000    -1.021000000
H     1.063000000    -0.899000000    -1.976000000
C     0.088000000     0.651000000    -1.025000000
H    -0.076000000     1.167000000    -2.069000000
C    -0.622000000     1.072000000     0.041000000
H    -1.078000000     2.054000000    -0.055000000
C    -0.706000000     0.336000000     1.204000000
H    -1.184000000     0.798000000     2.064000000
C    -0.084000000    -0.913000000     1.273000000
C    -0.198000000    -1.678000000     2.539000000
O     0.298000000    -2.754000000     2.767000000
O    -0.825000000    -1.123000000     3.403000000
O    -0.504000000    -1.366000000     7.714000000
H     0.068000000    -1.119000000     6.987000000
H     0.096000000    -1.626000000     8.413000000
O     1.997000000    -4.279000000    -2.485000000
H     2.143000000    -4.646000000    -1.613000000
H     1.103000000    -3.938000000    -2.453000000
O     4.102000000    -1.725000000     6.422000000
H     3.627000000    -1.481000000     5.628000000
H     3.712000000    -1.186000000     7.110000000
O     1.115000000    -6.930000000     2.305000000
H     1.430000000    -6.910000000     3.209000000
H     1.588000000    -7.659000000     1.903000000
O     2.521000000     1.332000000     0.742000000
H     3.050000000     0.793000000     0.153000000
H     1.623000000     1.036000000     0.595000000
O    -0.605000000    -3.431000000    -2.373000000
H    -1.509000000    -3.648000000    -2.144000000
H    -0.629000000    -2.497000000    -2.582000000
O    -2.562000000    -2.988000000     6.878000000
H    -1.695000000    -2.605000000     7.012000000
H    -2.577000000    -3.229000000     5.952000000
O    -0.357000000     5.265000000     2.143000000
H    -0.942000000     4.509000000     2.185000000
H    -0.392000000     5.645000000     3.021000000
O     5.495000000     2.755000000    -0.475000000
H     5.444000000     3.710000000    -0.513000000
H     4.644000000     2.457000000    -0.797000000
O     1.106000000     1.714000000     4.946000000
H     0.197000000     1.563000000     4.687000000
H     1.107000000     2.599000000     5.312000000
O    -4.223000000     0.812000000     1.181000000
H    -3.959000000     1.247000000     0.370000000
H    -5.030000000     1.258000000     1.440000000
O    -1.723000000     0.756000000    -6.264000000
H    -1.506000000     1.604000000    -6.652000000
H    -1.027000000     0.170000000    -6.562000000
O    -0.115000000    -4.812000000     1.045000000
H     0.207000000    -5.548000000     1.564000000
H    -0.102000000    -4.069000000     1.650000000
O    -2.472000000    -4.533000000    -0.300000000
H    -2.939000000    -5.325000000    -0.034000000
H    -1.623000000    -4.599000000     0.138000000
O     2.297000000     3.191000000    -5.966000000
H     2.920000000     2.986000000    -6.664000000
H     1.439000000     3.135000000    -6.387000000
O     4.196000000    -0.923000000    -3.556000000
H     4.410000000    -1.760000000    -3.143000000
H     3.363000000    -1.081000000    -3.999000000
O     2.587000000     3.638000000     2.888000000
H     2.540000000     3.201000000     2.038000000
H     1.699000000     3.962000000     3.040000000
O    -0.246000000    -7.348000000    -0.744000000
H    -0.029000000    -6.482000000    -0.399000000
H     0.554000000    -7.639000000    -1.182000000
O     3.895000000     4.759000000    -2.701000000
H     3.851000000     3.804000000    -2.747000000
H     4.060000000     5.035000000    -3.602000000
O     0.981000000     6.961000000     0.495000000
H     0.721000000     7.815000000     0.839000000
H     0.452000000     6.333000000     0.988000000
O    -1.991000000     3.303000000     2.996000000
H    -2.225000000     3.633000000     3.864000000
H    -2.598000000     2.578000000     2.844000000
O     4.702000000    -3.654000000    -2.289000000
H     4.831000000    -3.520000000    -1.351000000
H     3.755000000    -3.757000000    -2.389000000
O    -2.329000000     1.295000000    -3.532000000
H    -1.993000000     1.262000000    -4.427000000
H    -2.099000000     2.171000000    -3.221000000
O     4.482000000    -2.323000000     0.380000000
H     5.234000000    -2.857000000     0.635000000
H     3.807000000    -2.536000000     1.024000000
O    -2.255000000     3.901000000    -3.063000000
H    -1.555000000     4.540000000    -3.198000000
H    -2.923000000     4.138000000    -3.706000000
O     1.730000000    -1.900000000    -4.437000000
H     2.115000000    -2.106000000    -5.289000000
H     1.450000000    -2.747000000    -4.089000000
O     3.408000000    -4.235000000     4.724000000
H     2.711000000    -4.827000000     5.008000000
H     3.533000000    -3.640000000     5.463000000
O     0.739000000     0.308000000    -7.417000000
H     1.243000000    -0.140000000    -6.738000000
H     0.985000000    -0.135000000    -8.229000000
O     0.926000000    -1.444000000     5.423000000
H     0.338000000    -1.364000000     4.672000000
H     1.551000000    -0.727000000     5.316000000
O     3.015000000    -0.392000000     3.487000000
H     3.123000000    -1.153000000     2.916000000
H     2.660000000     0.288000000     2.915000000
O    -2.308000000     5.891000000    -0.495000000
H    -1.562000000     5.844000000    -1.094000000
H    -1.959000000     5.593000000     0.345000000
O    -0.620000000    -6.654000000     6.277000000
H    -0.303000000    -5.752000000     6.246000000
H    -1.288000000    -6.650000000     6.962000000
O     0.098000000     4.959000000    -4.599000000
H    -0.314000000     5.041000000    -5.459000000
H     0.752000000     4.269000000    -4.711000000
O    -2.518000000     0.396000000     7.983000000
H    -2.236000000     1.077000000     7.371000000
H    -1.980000000    -0.364000000     7.759000000
O    -4.181000000     1.088000000     4.670000000
H    -4.751000000     1.640000000     4.135000000
H    -4.760000000     0.409000000     5.015000000
O     3.700000000     2.346000000    -3.615000000
H     4.280000000     1.653000000    -3.931000000
H     3.153000000     2.563000000    -4.369000000
O    -4.569000000    -2.999000000     0.874000000
H    -3.897000000    -3.577000000     0.514000000
H    -4.106000000    -2.466000000     1.521000000
O    -2.748000000    -3.370000000     4.219000000
H    -3.324000000    -3.172000000     3.482000000
H    -2.031000000    -2.740000000     4.139000000
O    -3.308000000    -1.455000000     2.507000000
H    -3.482000000    -0.553000000     2.238000000
H    -2.400000000    -1.444000000     2.811000000
O    -0.224000000     5.671000000    -2.205000000
H     0.214000000     6.521000000    -2.180000000
H    -0.095000000     5.362000000    -3.102000000
O    -4.652000000     1.725000000    -5.002000000
H    -5.414000000     1.800000000    -4.428000000
H    -3.943000000     1.447000000    -4.423000000
O     0.099000000    -4.162000000     5.306000000
H    -0.040000000    -3.277000000     5.644000000
H     0.029000000    -4.069000000     4.356000000
O     4.297000000    -0.032000000    -0.978000000
H     4.221000000    -0.401000000    -1.857000000
H     4.399000000    -0.793000000    -0.406000000
O    -3.845000000     2.651000000    -0.744000000
H    -4.036000000     3.537000000    -0.435000000
H    -3.362000000     2.781000000    -1.560000000
O     2.621000000    -5.780000000    -0.226000000
H     3.464000000    -6.231000000    -0.258000000
H     2.338000000    -5.865000000     0.685000000
O    -2.616000000    -1.105000000    -2.094000000
H    -2.178000000    -0.834000000    -1.288000000
H    -2.485000000    -0.373000000    -2.696000000
O    -1.459000000     0.812000000     5.143000000
H    -2.372000000     1.076000000     5.023000000
H    -1.322000000     0.123000000     4.492000000
O     2.814000000    -2.831000000     2.472000000
H     1.857000000    -2.840000000     2.475000000
H     3.060000000    -3.226000000     3.309000000
