158
-3018.58430
C     0.642000000    -1.188000000     0.704000000
H     1.143000000    -2.110000000     0.987000000
C     0.462000000    -1.016000000    -0.712000000
H     0.734000000    -1.780000000    -1.435000000
C    -0.050000000     0.212000000    -1.170000000
H    -0.147000000     0.456000000    -2.265000000
C    -0.536000000     1.159000000    -0.338000000
H    -1.020000000     2.056000000    -0.717000000
C    -0.413000000     0.883000000     1.050000000
H    -0.840000000     1.699000000     1.626000000
C     0.269000000    -0.199000000     1.548000000
C     0.366000000    -0.492000000     3.042000000
O     0.896000000    -1.504000000     3.416000000
O    -0.188000000     0.318000000     3.738000000
O    -0.603000000    -1.615000000     6.091000000
H    -0.213000000    -0.940000000     6.647000000
H    -0.227000000    -1.458000000     5.225000000
O     0.884000000    -3.758000000    -4.071000000
H     1.648000000    -3.259000000    -4.360000000
H     1.250000000    -4.492000000    -3.578000000
O    -0.778000000     1.509000000     5.863000000
H    -0.543000000     0.992000000     5.092000000
H     0.057000000     1.686000000     6.297000000
O    -1.464000000    -4.228000000     5.686000000
H    -1.201000000    -4.089000000     4.776000000
H    -1.091000000    -3.484000000     6.159000000
O     1.969000000     1.599000000     6.663000000
H     2.229000000     2.460000000     6.335000000
H     2.638000000     1.002000000     6.328000000
O    -3.038000000     3.245000000     5.277000000
H    -3.079000000     4.116000000     5.670000000
H    -2.144000000     2.947000000     5.447000000
O    -2.871000000     4.724000000    -0.721000000
H    -2.416000000     5.560000000    -0.823000000
H    -2.721000000     4.479000000     0.192000000
O     0.211000000    -6.510000000     3.106000000
H     1.156000000    -6.355000000     3.119000000
H    -0.176000000    -5.638000000     3.183000000
O    -3.531000000     3.179000000    -2.838000000
H    -3.206000000     3.490000000    -1.993000000
H    -3.393000000     2.232000000    -2.813000000
O     2.358000000    -4.088000000    -1.182000000
H     2.992000000    -4.039000000    -1.898000000
H     2.469000000    -4.969000000    -0.824000000
O    -3.011000000    -0.761000000     6.358000000
H    -3.655000000    -1.467000000     6.412000000
H    -2.182000000    -1.206000000     6.179000000
O     2.997000000     0.749000000    -0.610000000
H     2.349000000     1.206000000    -1.146000000
H     3.116000000    -0.094000000    -1.046000000
O     2.523000000    -4.329000000     5.413000000
H     3.137000000    -3.606000000     5.278000000
H     2.448000000    -4.743000000     4.553000000
O     1.332000000     3.656000000    -5.142000000
H     0.982000000     2.816000000    -5.439000000
H     2.003000000     3.878000000    -5.788000000
O     4.004000000     2.005000000     4.031000000
H     3.254000000     2.448000000     3.635000000
H     4.380000000     1.487000000     3.320000000
O     0.368000000     4.702000000     3.279000000
H     1.012000000     4.210000000     3.787000000
H     0.069000000     5.391000000     3.873000000
O     2.836000000    -0.615000000     4.883000000
H     3.203000000    -0.034000000     4.217000000
H     2.127000000    -1.076000000     4.433000000
O    -1.574000000    -2.686000000    -3.126000000
H    -1.730000000    -2.802000000    -2.189000000
H    -0.870000000    -3.300000000    -3.330000000
O     1.372000000     3.000000000    -2.270000000
H     1.133000000     3.777000000    -1.764000000
H     1.228000000     3.254000000    -3.182000000
O     2.795000000    -5.443000000     2.041000000
H     2.417000000    -5.764000000     1.222000000
H     3.459000000    -6.093000000     2.270000000
O     0.427000000     1.204000000    -5.995000000
H     0.121000000     0.386000000    -5.605000000
H     1.359000000     1.058000000    -6.160000000
O    -2.645000000    -1.559000000    -0.323000000
H    -1.910000000    -0.999000000    -0.071000000
H    -2.523000000    -2.359000000     0.188000000
O    -3.828000000     1.057000000    -7.102000000
H    -4.743000000     1.160000000    -7.362000000
H    -3.865000000     0.858000000    -6.166000000
O    -1.881000000     4.272000000     1.916000000
H    -1.026000000     4.434000000     2.315000000
H    -2.466000000     4.900000000     2.339000000
O    -0.553000000    -4.492000000    -0.887000000
H     0.236000000    -4.266000000    -1.380000000
H    -0.230000000    -4.758000000    -0.027000000
O     5.570000000    -2.619000000     4.586000000
H     4.727000000    -2.604000000     4.134000000
H     6.044000000    -3.348000000     4.185000000
O     3.598000000    -1.722000000    -1.482000000
H     3.090000000    -2.403000000    -1.041000000
H     4.158000000    -2.200000000    -2.094000000
O     0.548000000     0.030000000     8.239000000
H     0.948000000     0.227000000     9.086000000
H     1.094000000     0.492000000     7.603000000
O     3.442000000    -2.800000000     2.974000000
H     3.393000000    -3.736000000     2.783000000
H     2.534000000    -2.499000000     2.931000000
O     0.328000000    -0.803000000    -4.201000000
H     0.867000000    -0.873000000    -3.413000000
H    -0.433000000    -1.355000000    -4.021000000
O    -3.707000000     2.195000000     2.150000000
H    -3.293000000     1.453000000     2.591000000
H    -2.983000000     2.792000000     1.956000000
O     5.489000000    -0.025000000     2.486000000
H     6.284000000    -0.190000000     2.993000000
H     4.967000000    -0.819000000     2.594000000
O    -1.460000000     2.551000000    -7.335000000
H    -0.905000000     2.189000000    -6.645000000
H    -2.278000000     2.059000000    -7.267000000
O    -4.026000000     0.386000000    -4.478000000
H    -4.909000000     0.621000000    -4.193000000
H    -3.574000000     0.136000000    -3.673000000
O     2.375000000    -2.114000000    -5.968000000
H     1.738000000    -1.604000000    -5.466000000
H     2.176000000    -1.911000000    -6.882000000
O    -5.319000000     1.718000000     0.002000000
H    -4.710000000     2.021000000     0.676000000
H    -5.933000000     1.153000000     0.471000000
O     2.458000000     4.985000000     1.392000000
H     1.740000000     5.236000000     1.973000000
H     2.488000000     4.029000000     1.448000000
O    -3.577000000     0.404000000    -1.754000000
H    -3.260000000    -0.362000000    -1.275000000
H    -4.205000000     0.815000000    -1.159000000
O    -3.006000000     0.097000000     3.675000000
H    -3.366000000     0.385000000     4.514000000
H    -2.058000000     0.160000000     3.787000000
O    -4.652000000    -1.936000000     3.101000000
H    -4.086000000    -1.204000000     3.348000000
H    -5.514000000    -1.696000000     3.440000000
O    -2.681000000    -3.616000000     1.758000000
H    -3.535000000    -3.336000000     2.087000000
H    -2.726000000    -4.572000000     1.755000000
O     2.412000000     2.033000000     1.700000000
H     1.523000000     1.706000000     1.838000000
H     2.710000000     1.590000000     0.906000000
O    -0.412000000    -3.734000000     3.333000000
H    -1.075000000    -3.433000000     2.711000000
H     0.160000000    -2.977000000     3.458000000
O     0.955000000     5.781000000    -1.388000000
H     0.143000000     6.107000000    -1.001000000
H     1.451000000     5.433000000    -0.647000000
O    -1.240000000    -3.418000000    -6.089000000
H    -0.607000000    -3.149000000    -5.423000000
H    -0.739000000    -3.977000000    -6.683000000
O    -6.062000000     0.998000000     2.823000000
H    -6.094000000     0.444000000     3.603000000
H    -5.128000000     1.137000000     2.667000000
O     1.047000000     6.357000000    -4.528000000
H     0.716000000     6.511000000    -3.643000000
H     1.200000000     5.412000000    -4.565000000
O     3.098000000    -1.758000000     7.505000000
H     2.922000000    -1.209000000     6.742000000
H     3.667000000    -1.224000000     8.059000000
