158
-2993.62393
C    -0.208000000    -1.477000000     0.115000000
H    -0.524000000    -2.517000000     0.098000000
C    -0.289000000    -0.768000000    -1.115000000
H    -0.667000000    -1.207000000    -2.035000000
C    -0.075000000     0.625000000    -1.081000000
H    -0.267000000     1.317000000    -2.010000000
C     0.324000000     1.228000000     0.075000000
H     0.381000000     2.312000000     0.125000000
C     0.437000000     0.488000000     1.267000000
H     0.690000000     0.977000000     2.205000000
C     0.174000000    -0.845000000     1.323000000
C     0.325000000    -1.536000000     2.651000000
O    -0.270000000    -2.607000000     2.784000000
O     0.903000000    -1.056000000     3.618000000
O     5.046000000     0.736000000     4.387000000
H     5.344000000     0.346000000     3.565000000
H     5.831000000     0.773000000     4.932000000
O    -4.553000000     3.094000000    -4.248000000
H    -4.395000000     2.448000000    -3.559000000
H    -4.835000000     3.879000000    -3.780000000
O    -0.694000000     4.869000000    -5.703000000
H    -0.974000000     5.756000000    -5.476000000
H    -1.330000000     4.577000000    -6.356000000
O    -5.318000000    -1.638000000     0.639000000
H    -4.542000000    -1.286000000     1.076000000
H    -5.639000000    -0.915000000     0.101000000
O     1.615000000    -4.096000000     1.498000000
H     1.455000000    -5.038000000     1.443000000
H     0.986000000    -3.784000000     2.148000000
O    -1.884000000    -0.118000000    -7.236000000
H    -1.870000000     0.012000000    -8.184000000
H    -2.601000000     0.437000000    -6.929000000
O    -1.105000000    -7.867000000    -1.067000000
H    -0.921000000    -7.068000000    -0.572000000
H    -1.711000000    -7.588000000    -1.754000000
O     3.685000000     0.450000000     0.218000000
H     3.451000000     0.167000000    -0.666000000
H     3.632000000     1.406000000     0.185000000
O     0.106000000    -3.688000000    -3.374000000
H     0.297000000    -4.336000000    -4.052000000
H     0.593000000    -2.909000000    -3.643000000
O    -2.218000000     4.797000000     0.208000000
H    -1.325000000     5.134000000     0.280000000
H    -2.731000000     5.543000000    -0.102000000
O     3.405000000     1.931000000     7.208000000
H     2.978000000     1.528000000     6.451000000
H     2.722000000     1.966000000     7.877000000
O    -2.580000000     2.886000000     1.986000000
H    -3.499000000     2.832000000     2.248000000
H    -2.557000000     3.589000000     1.337000000
O     0.029000000    -2.692000000     5.830000000
H    -0.047000000    -2.698000000     4.876000000
H    -0.138000000    -1.782000000     6.078000000
O     2.370000000    -0.002000000    -4.793000000
H     2.601000000     0.884000000    -5.070000000
H     1.433000000    -0.074000000    -4.977000000
O    -0.159000000     0.534000000    -5.146000000
H    -0.727000000     1.258000000    -4.884000000
H    -0.470000000     0.289000000    -6.017000000
O     0.613000000     6.027000000     0.536000000
H     1.001000000     5.511000000     1.244000000
H     1.141000000     5.812000000    -0.233000000
O    -1.118000000    -6.426000000     3.935000000
H    -1.271000000    -5.818000000     3.212000000
H    -0.700000000    -7.184000000     3.527000000
O     5.667000000     1.481000000    -2.766000000
H     6.310000000     2.022000000    -2.308000000
H     5.192000000     2.095000000    -3.326000000
O     2.616000000     5.201000000     2.496000000
H     3.257000000     5.511000000     1.856000000
H     2.793000000     4.264000000     2.578000000
O     0.204000000    -5.047000000     7.241000000
H     0.093000000    -4.183000000     6.842000000
H     1.035000000    -5.367000000     6.890000000
O     1.755000000     4.569000000    -1.434000000
H     1.803000000     5.422000000    -1.867000000
H     1.120000000     4.074000000    -1.952000000
O     2.133000000     4.264000000     5.989000000
H     1.674000000     5.087000000     5.822000000
H     1.943000000     3.724000000     5.221000000
O     3.250000000     2.327000000    -5.407000000
H     3.929000000     2.869000000    -5.006000000
H     3.573000000     2.154000000    -6.291000000
O     3.741000000     3.377000000     0.152000000
H     3.232000000     4.009000000    -0.356000000
H     4.565000000     3.828000000     0.338000000
O    -0.210000000    -5.211000000    -1.024000000
H     0.576000000    -5.585000000    -1.422000000
H    -0.511000000    -4.558000000    -1.656000000
O     2.908000000    -3.764000000    -1.086000000
H     2.227000000    -3.562000000    -1.727000000
H     2.429000000    -3.948000000    -0.277000000
O     2.888000000    -0.913000000     8.348000000
H     3.072000000    -0.697000000     7.434000000
H     2.126000000    -0.379000000     8.572000000
O     2.383000000    -0.145000000     5.717000000
H     3.187000000    -0.530000000     5.367000000
H     1.686000000    -0.507000000     5.170000000
O    -3.943000000     0.591000000    -1.935000000
H    -4.756000000     0.895000000    -1.530000000
H    -3.266000000     1.158000000    -1.567000000
O     2.663000000    -4.957000000     5.796000000
H     2.377000000    -4.249000000     5.219000000
H     3.452000000    -4.619000000     6.218000000
O     0.243000000     3.477000000    -3.630000000
H    -0.158000000     4.017000000    -4.310000000
H     1.034000000     3.126000000    -4.038000000
O     3.100000000    -2.831000000    -3.850000000
H     3.388000000    -2.093000000    -3.313000000
H     3.614000000    -2.758000000    -4.654000000
O    -3.334000000     0.764000000     4.271000000
H    -2.894000000     1.498000000     3.841000000
H    -2.624000000     0.261000000     4.670000000
O     3.956000000    -0.651000000    -2.782000000
H     4.603000000     0.047000000    -2.688000000
H     3.392000000    -0.359000000    -3.498000000
O    -2.995000000    -1.798000000    -3.676000000
H    -2.748000000    -1.098000000    -3.072000000
H    -3.928000000    -1.657000000    -3.837000000
O    -2.968000000    -2.821000000     3.969000000
H    -3.141000000    -3.669000000     3.561000000
H    -2.267000000    -2.439000000     3.441000000
O    -0.850000000     5.060000000     2.996000000
H    -1.165000000     4.251000000     2.593000000
H    -1.643000000     5.572000000     3.156000000
O     1.280000000    -2.270000000    -6.390000000
H     1.360000000    -1.563000000    -7.031000000
H     1.653000000    -1.907000000    -5.586000000
O     4.197000000     3.812000000    -3.191000000
H     3.495000000     3.721000000    -2.547000000
H     4.106000000     4.707000000    -3.519000000
O     2.749000000    -3.047000000     3.914000000
H     2.022000000    -2.426000000     3.888000000
H     2.766000000    -3.434000000     3.039000000
O     4.097000000    -2.246000000     0.966000000
H     3.362000000    -2.819000000     0.750000000
H     3.723000000    -1.365000000     0.962000000
O    -2.274000000    -2.775000000    -6.349000000
H    -2.277000000    -1.890000000    -6.712000000
H    -2.113000000    -2.650000000    -5.414000000
O    -3.059000000    -0.012000000     1.107000000
H    -2.154000000    -0.321000000     1.116000000
H    -2.989000000     0.937000000     1.212000000
O     2.710000000     2.289000000     3.312000000
H     2.389000000     1.585000000     2.747000000
H     3.406000000     1.883000000     3.827000000
O    -1.370000000    -4.997000000     1.483000000
H    -1.282000000    -4.168000000     1.953000000
H    -1.068000000    -4.803000000     0.596000000
O    -0.812000000     0.035000000     5.513000000
H    -0.393000000     0.871000000     5.716000000
H    -0.327000000    -0.299000000     4.758000000
O    -2.937000000    -2.700000000     6.697000000
H    -2.054000000    -3.043000000     6.832000000
H    -3.060000000    -2.719000000     5.748000000
O    -2.569000000    -4.716000000    -3.234000000
H    -2.886000000    -3.818000000    -3.131000000
H    -1.644000000    -4.619000000    -3.460000000
