158
-3045.44833
C     0.771000000    -1.229000000    -0.218000000
H     1.474000000    -2.029000000    -0.439000000
C     0.901000000    -0.065000000    -0.910000000
H     1.589000000    -0.007000000    -1.750000000
C     0.109000000     1.054000000    -0.643000000
H     0.099000000     1.967000000    -1.233000000
C    -0.716000000     1.006000000     0.483000000
H    -1.264000000     1.867000000     0.856000000
C    -0.920000000    -0.146000000     1.251000000
H    -1.605000000    -0.057000000     2.091000000
C    -0.174000000    -1.300000000     0.833000000
C    -0.400000000    -2.667000000     1.459000000
O     0.186000000    -3.606000000     0.945000000
O    -1.228000000    -2.886000000     2.347000000
O    -3.061000000     0.222000000    -5.987000000
H    -4.001000000     0.074000000    -5.877000000
H    -2.810000000     0.743000000    -5.225000000
O    -3.541000000    -1.684000000     3.323000000
H    -2.841000000    -2.163000000     2.879000000
H    -3.594000000    -2.086000000     4.190000000
O    -1.910000000     7.521000000     0.538000000
H    -1.755000000     8.452000000     0.699000000
H    -1.059000000     7.181000000     0.262000000
O    -2.834000000    -6.099000000     5.124000000
H    -1.950000000    -5.743000000     5.037000000
H    -2.869000000    -6.813000000     4.488000000
O     2.424000000    -6.760000000     3.028000000
H     2.596000000    -5.821000000     2.964000000
H     1.847000000    -6.949000000     2.289000000
O    -1.923000000     1.511000000     4.503000000
H    -1.350000000     2.217000000     4.201000000
H    -1.357000000     0.740000000     4.531000000
O    -1.744000000    -8.221000000     1.524000000
H    -0.982000000    -8.765000000     1.723000000
H    -1.402000000    -7.327000000     1.508000000
O     1.087000000    -4.432000000    -3.244000000
H     0.827000000    -5.306000000    -3.537000000
H     0.398000000    -4.171000000    -2.632000000
O    -0.491000000    -5.319000000     3.958000000
H    -0.310000000    -5.875000000     3.201000000
H    -0.619000000    -4.445000000     3.588000000
O     3.039000000    -4.049000000     3.114000000
H     3.687000000    -3.484000000     3.534000000
H     3.062000000    -3.797000000     2.191000000
O     0.088000000     3.552000000     4.149000000
H     0.721000000     3.761000000     4.835000000
H     0.564000000     3.695000000     3.331000000
O    -0.560000000    -1.057000000     4.798000000
H     0.373000000    -1.259000000     4.875000000
H    -0.847000000    -1.547000000     4.028000000
O    -0.672000000    -7.096000000    -1.332000000
H    -0.748000000    -7.077000000    -2.286000000
H    -0.349000000    -7.976000000    -1.135000000
O     1.961000000     1.069000000     1.879000000
H     1.447000000     0.433000000     1.382000000
H     1.478000000     1.891000000     1.789000000
O     4.565000000     1.515000000     1.285000000
H     4.847000000     0.643000000     1.010000000
H     3.619000000     1.435000000     1.403000000
O     0.972000000     6.836000000    -0.472000000
H     1.326000000     7.451000000    -1.115000000
H     1.540000000     6.068000000    -0.537000000
O    -1.803000000     2.657000000    -5.389000000
H    -1.547000000     3.300000000    -4.727000000
H    -2.760000000     2.692000000    -5.399000000
O     2.527000000    -7.305000000    -1.093000000
H     2.560000000    -7.814000000    -1.903000000
H     2.092000000    -6.489000000    -1.340000000
O    -0.872000000    -4.490000000    -1.267000000
H    -0.467000000    -4.202000000    -0.449000000
H    -0.878000000    -5.446000000    -1.208000000
O    -4.253000000     3.604000000     0.915000000
H    -5.030000000     3.722000000     1.462000000
H    -3.527000000     3.907000000     1.461000000
O     2.419000000    -2.390000000    -4.739000000
H     1.860000000    -2.608000000    -5.485000000
H     2.137000000    -2.988000000    -4.046000000
O     2.586000000     4.303000000    -0.758000000
H     2.592000000     3.708000000    -1.508000000
H     3.492000000     4.602000000    -0.684000000
O    -3.213000000    -2.885000000     5.853000000
H    -3.316000000    -3.793000000     6.136000000
H    -2.297000000    -2.679000000     6.038000000
O     0.152000000    -6.137000000     1.478000000
H     0.082000000    -6.476000000     0.585000000
H     0.334000000    -5.204000000     1.366000000
O    -2.823000000     0.320000000    -3.059000000
H    -3.178000000     0.996000000    -2.482000000
H    -1.942000000     0.628000000    -3.273000000
O     4.024000000    -4.426000000    -2.060000000
H     4.973000000    -4.410000000    -2.182000000
H     3.728000000    -3.573000000    -2.379000000
O     3.148000000     1.248000000    -3.867000000
H     4.000000000     1.573000000    -4.159000000
H     2.609000000     2.034000000    -3.783000000
O    -3.808000000    -4.705000000    -1.480000000
H    -4.207000000    -4.400000000    -0.665000000
H    -2.888000000    -4.850000000    -1.257000000
O     2.038000000     3.771000000    -3.843000000
H     2.329000000     4.118000000    -4.686000000
H     1.088000000     3.889000000    -3.850000000
O     1.222000000     3.778000000     1.634000000
H     1.310000000     4.699000000     1.876000000
H     1.613000000     3.721000000     0.762000000
O    -4.229000000     2.320000000    -1.383000000
H    -3.902000000     2.767000000    -0.602000000
H    -4.808000000     1.637000000    -1.043000000
O    -4.534000000     0.714000000     3.505000000
H    -4.494000000    -0.242000000     3.506000000
H    -3.647000000     0.990000000     3.273000000
O    -2.809000000     1.294000000     7.045000000
H    -2.427000000     2.166000000     7.150000000
H    -2.909000000     1.189000000     6.099000000
O    -4.768000000    -3.183000000     0.943000000
H    -5.048000000    -2.686000000     1.712000000
H    -4.346000000    -2.534000000     0.380000000
O     3.654000000    -2.957000000     0.805000000
H     4.007000000    -2.068000000     0.780000000
H     3.419000000    -3.147000000    -0.103000000
O     4.197000000    -1.310000000    -2.862000000
H     4.224000000    -0.357000000    -2.957000000
H     3.718000000    -1.614000000    -3.633000000
O     5.473000000    -1.102000000    -0.109000000
H     6.389000000    -0.871000000     0.043000000
H     5.421000000    -1.270000000    -1.050000000
O     5.472000000     3.342000000    -0.809000000
H     6.084000000     3.866000000    -0.293000000
H     5.054000000     2.764000000    -0.171000000
O    -6.044000000     0.419000000    -0.625000000
H    -5.280000000    -0.125000000    -0.432000000
H    -6.427000000     0.025000000    -1.409000000
O    -3.250000000    -5.407000000     1.497000000
H    -3.697000000    -4.565000000     1.408000000
H    -2.480000000    -5.213000000     2.033000000
O    -0.676000000     4.722000000    -3.795000000
H    -0.870000000     5.211000000    -2.996000000
H    -0.240000000     5.356000000    -4.364000000
O     5.602000000    -4.861000000     1.090000000
H     4.887000000    -4.252000000     0.905000000
H     5.353000000    -5.667000000     0.637000000
O    -2.053000000     6.319000000    -2.039000000
H    -2.679000000     5.625000000    -2.246000000
H    -2.431000000     6.764000000    -1.280000000
O    -3.800000000    -1.323000000    -0.841000000
H    -3.947000000    -1.606000000    -1.744000000
H    -2.929000000    -0.926000000    -0.853000000
O     2.362000000    -0.675000000     4.288000000
H     2.397000000    -0.185000000     3.467000000
H     3.141000000    -1.232000000     4.268000000
O     0.936000000    -0.031000000    -4.842000000
H     1.059000000    -0.938000000    -4.563000000
H     1.738000000     0.414000000    -4.570000000
O     1.141000000    -6.596000000     5.716000000
H     1.338000000    -7.308000000     5.107000000
H     0.490000000    -6.063000000     5.259000000
O    -0.226000000     1.335000000    -6.906000000
H    -0.320000000     0.562000000    -6.350000000
H    -0.919000000     1.927000000    -6.614000000
