158
-3035.07233
C     0.264000000    -1.439000000     0.013000000
H     0.477000000    -2.505000000     0.016000000
C     1.074000000    -0.543000000    -0.642000000
H     1.968000000    -0.886000000    -1.156000000
C     0.671000000     0.797000000    -0.699000000
H     1.297000000     1.474000000    -1.252000000
C    -0.477000000     1.192000000    -0.100000000
H    -0.721000000     2.248000000    -0.016000000
C    -1.360000000     0.295000000     0.541000000
H    -2.282000000     0.666000000     0.980000000
C    -0.955000000    -1.052000000     0.612000000
C    -1.757000000    -1.990000000     1.495000000
O    -1.490000000    -3.220000000     1.471000000
O    -2.605000000    -1.598000000     2.259000000
O    -5.414000000    -1.424000000     2.730000000
H    -4.495000000    -1.270000000     2.509000000
H    -5.864000000    -1.442000000     1.885000000
O    -3.461000000    -7.461000000    -0.729000000
H    -3.282000000    -6.751000000    -0.112000000
H    -2.627000000    -7.924000000    -0.809000000
O     4.600000000     1.121000000    -0.295000000
H     4.244000000     0.670000000     0.470000000
H     4.425000000     0.528000000    -1.026000000
O     6.078000000    -3.960000000    -1.351000000
H     5.319000000    -3.496000000    -1.704000000
H     6.097000000    -4.788000000    -1.832000000
O     0.999000000     2.526000000     2.586000000
H     1.355000000     3.413000000     2.532000000
H     0.690000000     2.337000000     1.700000000
O    -6.287000000     0.625000000     4.210000000
H    -5.992000000    -0.243000000     3.938000000
H    -7.138000000     0.471000000     4.620000000
O    -4.918000000     3.581000000    -0.015000000
H    -4.291000000     4.228000000     0.308000000
H    -5.305000000     3.206000000     0.776000000
O     0.425000000     6.157000000    -4.085000000
H    -0.060000000     6.775000000    -3.538000000
H     1.203000000     5.943000000    -3.570000000
O    -3.235000000     2.818000000    -4.324000000
H    -2.641000000     2.123000000    -4.040000000
H    -4.102000000     2.517000000    -4.055000000
O    -0.130000000    -2.131000000    -3.650000000
H     0.208000000    -1.242000000    -3.752000000
H    -1.065000000    -2.013000000    -3.478000000
O    -3.055000000     3.968000000     4.002000000
H    -2.404000000     3.935000000     4.702000000
H    -2.565000000     4.253000000     3.231000000
O     1.115000000     0.340000000    -3.909000000
H     1.039000000     0.541000000    -2.976000000
H     0.726000000     1.096000000    -4.349000000
O     0.416000000    -5.081000000     0.816000000
H     0.395000000    -4.986000000    -0.136000000
H    -0.146000000    -4.376000000     1.139000000
O     2.920000000     4.063000000    -3.976000000
H     2.804000000     4.365000000    -4.877000000
H     2.031000000     3.892000000    -3.665000000
O     3.488000000    -2.291000000     1.954000000
H     2.906000000    -1.540000000     2.071000000
H     4.196000000    -1.963000000     1.401000000
O     5.291000000     3.402000000     2.690000000
H     5.364000000     3.589000000     1.754000000
H     4.987000000     2.495000000     2.729000000
O    -0.137000000    -2.262000000     4.133000000
H     0.246000000    -3.057000000     4.503000000
H    -0.833000000    -2.578000000     3.556000000
O    -2.808000000    -1.968000000    -2.916000000
H    -3.344000000    -2.348000000    -2.219000000
H    -3.440000000    -1.672000000    -3.570000000
O     1.787000000     5.082000000     2.568000000
H     2.456000000     5.279000000     3.223000000
H     1.297000000     5.899000000     2.473000000
O    -0.613000000    -1.788000000     6.770000000
H     0.209000000    -1.775000000     7.259000000
H    -0.352000000    -1.668000000     5.857000000
O     0.869000000    -5.150000000    -2.091000000
H     1.081000000    -4.313000000    -2.504000000
H     1.719000000    -5.563000000    -1.938000000
O     2.882000000     0.601000000    -5.881000000
H     2.582000000     0.555000000    -4.974000000
H     2.200000000     1.098000000    -6.334000000
O     7.125000000     0.763000000    -2.129000000
H     6.321000000     0.291000000    -1.910000000
H     6.857000000     1.397000000    -2.794000000
O     5.962000000     3.426000000    -0.522000000
H     5.740000000     3.580000000    -1.440000000
H     5.630000000     2.548000000    -0.338000000
O     1.899000000     4.153000000    -0.689000000
H     2.800000000     3.832000000    -0.654000000
H     1.961000000     4.990000000    -1.150000000
O     3.858000000    -2.898000000    -3.200000000
H     3.376000000    -2.083000000    -3.341000000
H     3.918000000    -3.294000000    -4.070000000
O    -0.823000000    -6.188000000     3.202000000
H    -0.119000000    -5.908000000     3.787000000
H    -0.666000000    -5.706000000     2.390000000
O     5.190000000     2.840000000    -3.229000000
H     5.889000000     3.375000000    -3.605000000
H     4.388000000     3.186000000    -3.620000000
O    -1.846000000     0.755000000    -2.813000000
H    -1.290000000     1.039000000    -2.088000000
H    -2.351000000     0.024000000    -2.456000000
O    -6.444000000    -1.018000000     0.047000000
H    -7.027000000    -0.503000000     0.605000000
H    -6.961000000    -1.788000000    -0.192000000
O     4.375000000     0.147000000    -2.940000000
H     4.734000000    -0.250000000    -3.733000000
H     4.663000000     1.059000000    -2.977000000
O     1.728000000    -7.578000000     1.051000000
H     2.220000000    -7.501000000     1.868000000
H     1.359000000    -6.706000000     0.911000000
O    -5.504000000     0.802000000    -2.712000000
H    -5.412000000     0.361000000    -1.868000000
H    -5.897000000     1.649000000    -2.499000000
O    -5.338000000    -2.812000000     4.951000000
H    -5.692000000    -2.355000000     4.188000000
H    -4.429000000    -3.001000000     4.717000000
O    -0.903000000     4.554000000     0.231000000
H    -1.531000000     4.381000000    -0.471000000
H    -0.102000000     4.110000000    -0.049000000
O     2.564000000     6.448000000    -2.265000000
H     3.218000000     6.624000000    -2.942000000
H     2.911000000     6.872000000    -1.480000000
O    -2.766000000    -0.392000000     5.327000000
H    -2.669000000    -0.665000000     4.415000000
H    -2.120000000    -0.914000000     5.803000000
O    -1.153000000     5.565000000     2.781000000
H    -0.409000000     5.157000000     3.223000000
H    -1.020000000     5.366000000     1.855000000
O     0.101000000     3.081000000    -3.710000000
H    -0.560000000     3.093000000    -3.019000000
H    -0.330000000     3.491000000    -4.461000000
O    -5.416000000     2.390000000     2.290000000
H    -4.732000000     2.827000000     2.797000000
H    -5.728000000     1.688000000     2.863000000
O    -5.952000000    -4.079000000     0.936000000
H    -6.128000000    -4.609000000     0.158000000
H    -6.740000000    -4.171000000     1.472000000
O    -2.796000000     4.119000000    -1.673000000
H    -3.592000000     3.819000000    -1.234000000
H    -3.058000000     4.240000000    -2.586000000
O    -3.433000000    -4.864000000     0.615000000
H    -4.155000000    -4.468000000     1.104000000
H    -2.645000000    -4.479000000     0.998000000
O    -4.858000000    -2.616000000    -1.412000000
H    -5.292000000    -1.913000000    -0.929000000
H    -4.669000000    -3.280000000    -0.749000000
O     1.635000000    -0.377000000     2.892000000
H     0.968000000    -0.919000000     3.312000000
H     1.212000000     0.473000000     2.770000000
O     4.311000000     0.973000000     3.182000000
H     4.913000000     0.388000000     3.642000000
H     3.503000000     0.467000000     3.100000000
O    -2.784000000    -3.989000000     3.885000000
H    -2.576000000    -3.345000000     3.208000000
H    -2.811000000    -4.825000000     3.420000000
O     3.529000000    -5.082000000     3.055000000
H     3.547000000    -4.155000000     2.817000000
H     4.162000000    -5.493000000     2.466000000
