158
-3058.34204
C     0.829000000    -1.198000000     0.101000000
H     1.499000000    -2.035000000    -0.079000000
C     1.328000000     0.053000000    -0.114000000
H     2.397000000     0.193000000    -0.251000000
C     0.419000000     1.100000000    -0.176000000
H     0.769000000     2.145000000    -0.068000000
C    -0.947000000     0.846000000    -0.017000000
H    -1.626000000     1.693000000    -0.080000000
C    -1.444000000    -0.392000000     0.234000000
H    -2.520000000    -0.459000000     0.374000000
C    -0.515000000    -1.429000000     0.353000000
C    -1.080000000    -2.823000000     0.645000000
O    -0.253000000    -3.638000000     1.034000000
O    -2.301000000    -2.963000000     0.564000000
O    -4.575000000    -2.408000000     2.135000000
H    -3.895000000    -2.699000000     1.527000000
H    -5.391000000    -2.493000000     1.641000000
O     4.276000000     0.858000000     1.886000000
H     4.502000000     0.807000000     2.815000000
H     3.445000000     0.387000000     1.816000000
O     0.886000000     0.599000000     3.046000000
H     1.278000000     1.471000000     3.091000000
H     0.510000000     0.551000000     2.167000000
O    -4.863000000    -1.912000000     4.857000000
H    -4.846000000    -1.876000000     3.900000000
H    -5.713000000    -2.299000000     5.067000000
O    -3.805000000     2.840000000    -0.098000000
H    -4.308000000     2.138000000    -0.512000000
H    -4.002000000     2.758000000     0.835000000
O     1.273000000     2.142000000    -6.361000000
H     1.165000000     2.949000000    -6.863000000
H     0.600000000     2.190000000    -5.682000000
O    -2.420000000     1.398000000    -4.618000000
H    -1.633000000     0.955000000    -4.302000000
H    -3.098000000     1.162000000    -3.986000000
O     1.899000000    -2.454000000    -4.406000000
H     2.120000000    -1.541000000    -4.590000000
H     0.949000000    -2.450000000    -4.284000000
O    -1.182000000     4.542000000     3.706000000
H    -0.622000000     5.085000000     4.261000000
H    -0.598000000     4.217000000     3.022000000
O     5.240000000     5.266000000     2.228000000
H     5.042000000     6.103000000     1.808000000
H     4.695000000     4.631000000     1.764000000
O     2.941000000    -0.010000000    -4.894000000
H     3.723000000     0.201000000    -4.383000000
H     2.687000000     0.820000000    -5.298000000
O     1.690000000    -4.635000000    -0.371000000
H     2.143000000    -3.940000000    -0.848000000
H     0.936000000    -4.200000000     0.028000000
O     1.847000000     2.472000000    -2.825000000
H     1.587000000     1.618000000    -3.172000000
H     1.095000000     3.039000000    -2.997000000
O     5.513000000    -4.341000000    -0.040000000
H     4.883000000    -3.641000000    -0.212000000
H     6.131000000    -3.958000000     0.583000000
O     7.091000000     0.208000000     1.701000000
H     6.202000000     0.562000000     1.687000000
H     7.625000000     0.913000000     2.067000000
O     1.314000000    -3.779000000     3.197000000
H     1.938000000    -4.447000000     2.912000000
H     0.717000000    -3.677000000     2.457000000
O    -0.793000000    -2.415000000    -4.064000000
H    -1.397000000    -2.565000000    -3.337000000
H    -1.259000000    -2.741000000    -4.834000000
O     2.131000000     2.908000000     3.343000000
H     2.903000000     2.776000000     3.893000000
H     2.098000000     3.853000000     3.197000000
O     1.250000000    -2.426000000     5.879000000
H     2.172000000    -2.382000000     6.129000000
H     1.250000000    -2.895000000     5.044000000
O     3.141000000    -3.326000000    -2.279000000
H     2.732000000    -3.053000000    -3.101000000
H     4.078000000    -3.193000000    -2.422000000
O    -6.875000000     0.367000000     1.618000000
H    -7.612000000    -0.052000000     2.062000000
H    -6.376000000     0.782000000     2.322000000
O     6.601000000     0.507000000    -1.214000000
H     6.924000000     0.120000000    -0.400000000
H     6.444000000    -0.242000000    -1.790000000
O     4.570000000     3.296000000     0.394000000
H     5.449000000     3.090000000     0.075000000
H     4.147000000     2.444000000     0.497000000
O     2.632000000     4.413000000    -1.029000000
H     3.393000000     4.153000000    -0.510000000
H     2.329000000     3.600000000    -1.434000000
O     0.304000000    -7.923000000     0.324000000
H     0.587000000    -7.028000000     0.137000000
H     1.114000000    -8.396000000     0.513000000
O    -4.256000000     5.717000000    -0.329000000
H    -3.341000000     5.499000000    -0.505000000
H    -4.539000000     5.066000000     0.313000000
O    -0.115000000    -5.863000000     5.060000000
H     0.738000000    -5.498000000     4.824000000
H    -0.153000000    -5.788000000     6.013000000
O     5.084000000     1.656000000    -3.969000000
H     5.523000000     2.409000000    -4.364000000
H     4.654000000     2.010000000    -3.191000000
O    -0.302000000     7.406000000    -3.258000000
H    -0.613000000     7.699000000    -2.401000000
H    -0.245000000     6.454000000    -3.179000000
O    -0.328000000     0.387000000    -3.235000000
H    -0.469000000     0.406000000    -2.289000000
H    -0.437000000    -0.533000000    -3.476000000
O    -5.506000000    -0.834000000    -0.751000000
H    -5.934000000    -0.467000000     0.023000000
H    -5.509000000    -1.780000000    -0.600000000
O    -3.480000000     0.099000000    -2.257000000
H    -3.114000000    -0.785000000    -2.223000000
H    -4.210000000     0.080000000    -1.638000000
O    -4.287000000    -5.639000000     2.659000000
H    -3.418000000    -6.038000000     2.635000000
H    -4.178000000    -4.859000000     3.203000000
O     0.411000000     4.916000000     0.201000000
H    -0.155000000     4.377000000    -0.351000000
H     1.297000000     4.730000000    -0.110000000
O     3.010000000     5.798000000    -3.423000000
H     2.590000000     5.184000000    -2.821000000
H     2.587000000     6.638000000    -3.244000000
O    -1.699000000     0.648000000     4.383000000
H    -0.868000000     0.566000000     3.915000000
H    -1.522000000     1.285000000     5.075000000
O     1.321000000     5.402000000     2.779000000
H     1.275000000     6.342000000     2.949000000
H     0.943000000     5.298000000     1.906000000
O     0.276000000     4.564000000    -3.059000000
H    -0.591000000     4.510000000    -2.658000000
H     0.112000000     4.472000000    -3.997000000
O    -5.159000000    -4.616000000    -2.739000000
H    -4.830000000    -4.806000000    -1.860000000
H    -5.387000000    -5.472000000    -3.099000000
O    -3.484000000     2.883000000     2.823000000
H    -2.802000000     3.245000000     3.388000000
H    -3.874000000     2.177000000     3.339000000
O    -6.624000000    -3.768000000     0.773000000
H    -5.998000000    -4.403000000     1.119000000
H    -7.198000000    -4.283000000     0.205000000
O    -2.136000000     4.148000000    -1.921000000
H    -2.673000000     3.415000000    -1.621000000
H    -2.731000000     4.679000000    -2.451000000
O    -3.889000000    -4.938000000    -0.499000000
H    -3.325000000    -4.251000000    -0.144000000
H    -3.757000000    -5.683000000     0.088000000
O    -3.229000000    -2.538000000    -2.267000000
H    -3.193000000    -2.535000000    -1.311000000
H    -3.965000000    -3.113000000    -2.477000000
O     2.744000000    -1.412000000     3.159000000
H     2.508000000    -2.318000000     2.960000000
H     1.907000000    -0.951000000     3.209000000
O    -1.619000000    -5.909000000     2.683000000
H    -1.444000000    -5.211000000     2.052000000
H    -0.853000000    -5.910000000     3.257000000
O     3.274000000    -5.136000000     1.789000000
H     2.641000000    -5.109000000     1.071000000
H     4.042000000    -4.677000000     1.448000000
O    -1.714000000     6.609000000     0.843000000
H    -1.027000000     6.092000000     0.421000000
H    -1.751000000     7.419000000     0.335000000
