158
-3046.75698
C    -0.257000000    -1.095000000    -0.988000000
H    -0.373000000    -1.812000000    -1.797000000
C     0.293000000     0.132000000    -1.307000000
H     0.631000000     0.340000000    -2.319000000
C     0.543000000     1.027000000    -0.292000000
H     1.047000000     1.994000000    -0.506000000
C     0.181000000     0.778000000     1.048000000
H     0.348000000     1.526000000     1.819000000
C    -0.466000000    -0.426000000     1.298000000
H    -0.743000000    -0.670000000     2.320000000
C    -0.701000000    -1.402000000     0.305000000
C    -1.573000000    -2.587000000     0.622000000
O    -1.715000000    -3.459000000    -0.209000000
O    -2.039000000    -2.706000000     1.717000000
O    -0.791000000     7.077000000    -2.454000000
H    -0.796000000     6.225000000    -2.019000000
H     0.126000000     7.351000000    -2.433000000
O     2.325000000     5.317000000     1.030000000
H     2.598000000     5.500000000     1.929000000
H     1.447000000     4.946000000     1.117000000
O     1.230000000    -3.353000000     1.433000000
H     1.273000000    -3.343000000     0.477000000
H     0.525000000    -3.968000000     1.635000000
O     6.532000000     4.558000000     1.488000000
H     5.929000000     4.385000000     0.764000000
H     6.378000000     3.841000000     2.104000000
O    -4.765000000     0.293000000     0.829000000
H    -5.476000000    -0.082000000     0.310000000
H    -4.595000000    -0.360000000     1.509000000
O     2.558000000    -3.405000000    -1.012000000
H     3.466000000    -3.541000000    -1.285000000
H     2.510000000    -2.474000000    -0.796000000
O     4.421000000     1.405000000     0.430000000
H     4.031000000     0.561000000     0.205000000
H     4.140000000     1.566000000     1.331000000
O    -1.925000000    -7.632000000     1.991000000
H    -2.632000000    -8.258000000     2.147000000
H    -1.557000000    -7.466000000     2.859000000
O    -7.246000000    -2.123000000     2.253000000
H    -7.650000000    -1.637000000     1.534000000
H    -6.692000000    -2.773000000     1.822000000
O     3.057000000     4.303000000    -4.560000000
H     3.008000000     5.227000000    -4.317000000
H     2.194000000     3.952000000    -4.340000000
O    -1.484000000     2.059000000     5.025000000
H    -1.563000000     1.177000000     5.388000000
H    -2.046000000     2.049000000     4.250000000
O    -3.935000000    -5.794000000     4.693000000
H    -3.809000000    -6.376000000     5.442000000
H    -3.163000000    -5.228000000     4.697000000
O    -0.376000000    -5.865000000     0.645000000
H    -0.714000000    -6.646000000     1.083000000
H    -1.116000000    -5.259000000     0.631000000
O    -4.480000000    -6.025000000     0.394000000
H    -3.968000000    -6.700000000     0.840000000
H    -3.852000000    -5.587000000    -0.180000000
O    -4.477000000    -0.119000000     5.597000000
H    -5.400000000    -0.227000000     5.368000000
H    -4.007000000    -0.652000000     4.957000000
O     4.577000000     4.152000000     4.062000000
H     4.149000000     3.309000000     3.913000000
H     5.511000000     3.944000000     4.091000000
O     0.777000000    -1.918000000     3.897000000
H     1.441000000    -2.301000000     4.470000000
H     0.972000000    -2.274000000     3.031000000
O    -3.508000000    -4.092000000    -1.934000000
H    -2.845000000    -3.801000000    -1.308000000
H    -3.556000000    -3.384000000    -2.577000000
O     7.173000000     1.851000000     0.039000000
H     7.429000000     1.613000000     0.930000000
H     6.216000000     1.849000000     0.055000000
O     0.541000000     3.759000000    -4.464000000
H     0.059000000     4.408000000    -4.978000000
H    -0.104000000     3.417000000    -3.846000000
O     1.162000000     0.686000000     4.554000000
H     0.866000000    -0.224000000     4.585000000
H     0.389000000     1.198000000     4.791000000
O    -0.097000000    -4.157000000    -2.168000000
H     0.829000000    -4.149000000    -1.926000000
H    -0.561000000    -4.007000000    -1.344000000
O    -2.798000000     1.145000000    -0.838000000
H    -3.469000000     0.797000000    -0.251000000
H    -2.064000000     1.360000000    -0.262000000
O     1.683000000     7.461000000    -1.694000000
H     1.857000000     8.195000000    -1.104000000
H     1.790000000     6.683000000    -1.146000000
O    -1.076000000    -0.242000000    -6.771000000
H    -0.289000000     0.300000000    -6.712000000
H    -0.748000000    -1.141000000    -6.773000000
O    -0.537000000    -0.979000000     7.469000000
H    -0.987000000    -1.291000000     8.254000000
H    -1.003000000    -1.398000000     6.744000000
O     2.931000000    -3.166000000    -4.934000000
H     2.748000000    -2.351000000    -5.402000000
H     2.370000000    -3.129000000    -4.159000000
O     4.469000000     4.107000000    -0.503000000
H     3.637000000     4.502000000    -0.245000000
H     4.378000000     3.183000000    -0.269000000
O    -1.755000000     4.715000000     5.907000000
H    -1.448000000     4.757000000     6.813000000
H    -1.502000000     3.842000000     5.609000000
O    -1.556000000    -4.393000000     4.067000000
H    -1.746000000    -4.022000000     3.206000000
H    -0.601000000    -4.385000000     4.126000000
O    -3.789000000    -1.712000000    -3.556000000
H    -3.681000000    -0.778000000    -3.381000000
H    -3.774000000    -1.781000000    -4.510000000
O     3.476000000    -0.189000000    -5.028000000
H     3.802000000    -0.049000000    -4.139000000
H     4.176000000    -0.673000000    -5.466000000
O     4.175000000     2.503000000    -6.165000000
H     3.772000000     3.236000000    -5.698000000
H     4.395000000     1.874000000    -5.478000000
O     1.366000000     1.448000000    -6.342000000
H     1.354000000     2.254000000    -5.826000000
H     2.119000000     0.960000000    -6.007000000
O    -3.394000000     1.506000000     3.184000000
H    -3.501000000     0.809000000     2.537000000
H    -4.128000000     1.387000000     3.787000000
O    -3.916000000    -1.359000000     2.969000000
H    -4.503000000    -2.014000000     3.346000000
H    -3.172000000    -1.864000000     2.641000000
O    -4.498000000    -5.851000000    -4.134000000
H    -4.780000000    -6.736000000    -3.902000000
H    -4.740000000    -5.316000000    -3.377000000
O     5.879000000     5.064000000    -2.524000000
H     5.196000000     4.576000000    -2.065000000
H     6.698000000     4.738000000    -2.151000000
O    -2.278000000     3.406000000     0.985000000
H    -3.094000000     3.477000000     0.489000000
H    -2.551000000     3.110000000     1.853000000
O     2.962000000    -0.966000000     0.191000000
H     2.777000000    -1.537000000     0.937000000
H     2.225000000    -0.357000000     0.166000000
O    -1.457000000    -5.133000000    -4.140000000
H    -2.284000000    -5.447000000    -3.773000000
H    -1.014000000    -4.710000000    -3.404000000
O    -4.706000000    -2.921000000     0.890000000
H    -4.701000000    -3.878000000     0.865000000
H    -3.781000000    -2.678000000     0.930000000
O     3.642000000     1.474000000     3.476000000
H     4.050000000     0.750000000     3.952000000
H     2.702000000     1.323000000     3.569000000
O     0.899000000    -7.383000000    -1.350000000
H     0.526000000    -6.787000000    -0.700000000
H     1.253000000    -6.807000000    -2.028000000
O    -1.854000000    -1.461000000     5.318000000
H    -2.488000000    -2.178000000     5.304000000
H    -1.284000000    -1.631000000     4.568000000
O    -0.520000000     4.725000000    -0.973000000
H    -0.560000000     3.953000000    -1.538000000
H    -1.075000000     4.503000000    -0.225000000
O    -1.420000000     3.088000000    -2.879000000
H    -1.780000000     2.235000000    -2.637000000
H    -2.177000000     3.589000000    -3.182000000
O    -5.886000000    -2.266000000    -1.749000000
H    -5.280000000    -1.823000000    -2.342000000
H    -5.399000000    -2.354000000    -0.930000000
