158
-3022.37580
C     0.531000000    -1.120000000    -0.756000000
H     0.759000000    -1.866000000    -1.513000000
C     0.985000000     0.190000000    -0.858000000
H     1.710000000     0.439000000    -1.629000000
C     0.450000000     1.158000000    -0.021000000
H     0.676000000     2.214000000    -0.229000000
C    -0.491000000     0.765000000     0.898000000
H    -0.849000000     1.479000000     1.635000000
C    -0.951000000    -0.516000000     1.071000000
H    -1.723000000    -0.733000000     1.805000000
C    -0.434000000    -1.510000000     0.200000000
C    -0.989000000    -2.897000000     0.214000000
O    -0.586000000    -3.642000000    -0.699000000
O    -1.780000000    -3.286000000     1.025000000
O     2.888000000     5.632000000     2.287000000
H     3.773000000     5.820000000     1.973000000
H     2.434000000     6.474000000     2.239000000
O     0.041000000     5.894000000    -0.551000000
H    -0.525000000     5.693000000     0.194000000
H     0.001000000     5.111000000    -1.101000000
O     5.983000000     1.904000000    -1.372000000
H     5.822000000     0.960000000    -1.364000000
H     6.918000000     1.986000000    -1.558000000
O    -5.335000000     0.967000000     0.559000000
H    -5.907000000     0.602000000    -0.116000000
H    -5.658000000     1.859000000     0.689000000
O     2.173000000    -4.250000000     1.389000000
H     2.300000000    -4.848000000     0.652000000
H     2.886000000    -3.617000000     1.309000000
O     3.544000000     1.270000000     3.282000000
H     2.826000000     0.738000000     2.939000000
H     3.119000000     2.056000000     3.624000000
O    -0.378000000     4.612000000     2.801000000
H    -0.304000000     3.813000000     3.322000000
H     0.513000000     4.963000000     2.774000000
O    -2.156000000    -7.945000000     1.409000000
H    -2.010000000    -7.210000000     0.813000000
H    -2.667000000    -7.572000000     2.127000000
O     3.122000000     3.774000000    -3.567000000
H     2.653000000     3.949000000    -2.752000000
H     2.533000000     4.086000000    -4.254000000
O     3.539000000    -3.123000000    -2.304000000
H     4.370000000    -3.186000000    -2.774000000
H     3.740000000    -2.597000000    -1.530000000
O    -2.739000000     0.869000000     4.338000000
H    -2.805000000    -0.032000000     4.654000000
H    -3.530000000     0.999000000     3.816000000
O    -0.926000000    -6.218000000    -0.713000000
H    -0.058000000    -6.502000000    -0.426000000
H    -0.903000000    -5.264000000    -0.638000000
O     5.874000000    -0.852000000    -0.859000000
H     5.729000000    -0.806000000     0.086000000
H     6.815000000    -1.002000000    -0.950000000
O    -6.144000000    -5.283000000     2.543000000
H    -5.742000000    -6.098000000     2.842000000
H    -5.581000000    -4.594000000     2.897000000
O     5.122000000    -0.824000000    -3.493000000
H     5.388000000    -0.926000000    -2.579000000
H     5.729000000    -0.176000000    -3.849000000
O     0.233000000    -3.384000000     3.144000000
H    -0.523000000    -3.216000000     2.583000000
H     0.880000000    -3.782000000     2.562000000
O    -2.099000000    -3.158000000    -3.022000000
H    -1.865000000    -3.244000000    -2.098000000
H    -2.889000000    -2.618000000    -3.020000000
O     0.021000000     3.796000000    -2.523000000
H    -0.073000000     4.142000000    -3.410000000
H    -0.747000000     3.238000000    -2.401000000
O     2.742000000     7.067000000    -3.502000000
H     2.940000000     6.131000000    -3.481000000
H     3.599000000     7.493000000    -3.518000000
O    -0.241000000     2.326000000     4.438000000
H     0.307000000     2.404000000     5.219000000
H    -1.028000000     1.874000000     4.742000000
O     0.886000000    -4.133000000    -3.296000000
H     1.578000000    -3.511000000    -3.069000000
H     0.440000000    -4.307000000    -2.467000000
O    -3.012000000     0.327000000    -1.146000000
H    -2.164000000     0.114000000    -0.756000000
H    -3.625000000     0.304000000    -0.411000000
O    -0.474000000     8.418000000    -1.078000000
H    -0.314000000     8.693000000    -0.176000000
H     0.009000000     7.596000000    -1.167000000
O     0.222000000    -3.605000000    -6.096000000
H     0.618000000    -3.395000000    -5.250000000
H    -0.420000000    -4.287000000    -5.896000000
O     2.286000000     4.462000000    -0.963000000
H     2.115000000     5.184000000    -0.358000000
H     1.448000000     4.315000000    -1.402000000
O    -1.823000000     7.167000000     1.712000000
H    -2.083000000     6.343000000     2.124000000
H    -1.602000000     7.742000000     2.444000000
O    -1.334000000     4.956000000    -4.664000000
H    -1.588000000     5.729000000    -5.168000000
H    -2.085000000     4.784000000    -4.095000000
O    -3.534000000     3.903000000     3.630000000
H    -3.235000000     3.636000000     4.499000000
H    -2.751000000     3.859000000     3.083000000
O    -2.956000000    -5.234000000     2.189000000
H    -2.299000000    -4.642000000     1.824000000
H    -2.598000000    -5.496000000     3.037000000
O     1.925000000    -6.286000000    -4.588000000
H     1.105000000    -6.613000000    -4.958000000
H     1.678000000    -5.484000000    -4.129000000
O    -4.119000000    -1.133000000    -3.053000000
H    -3.486000000    -0.530000000    -2.662000000
H    -4.144000000    -0.886000000    -3.978000000
O     3.050000000     0.846000000    -4.801000000
H     3.296000000     1.714000000    -4.480000000
H     3.540000000     0.238000000    -4.247000000
O    -2.268000000    -2.194000000     5.516000000
H    -2.844000000    -2.697000000     4.940000000
H    -2.348000000    -2.623000000     6.368000000
O     0.404000000     1.317000000    -4.853000000
H    -0.098000000     1.471000000    -4.052000000
H     1.187000000     0.852000000    -4.559000000
O    -5.165000000    -0.116000000     3.151000000
H    -5.059000000    -0.161000000     2.201000000
H    -4.705000000    -0.888000000     3.480000000
O     0.042000000    -8.116000000    -2.685000000
H    -0.520000000    -7.641000000    -2.073000000
H    -0.105000000    -7.686000000    -3.528000000
O    -3.402000000    -2.424000000     3.115000000
H    -2.958000000    -2.617000000     2.290000000
H    -3.927000000    -3.205000000     3.293000000
O     3.512000000     3.782000000     4.296000000
H     3.461000000     4.250000000     3.463000000
H     4.308000000     4.116000000     4.711000000
O     4.859000000     4.473000000    -0.833000000
H     3.904000000     4.407000000    -0.843000000
H     5.163000000     3.581000000    -1.002000000
O     2.768000000    -5.559000000    -0.919000000
H     3.304000000    -6.229000000    -1.343000000
H     2.674000000    -4.873000000    -1.580000000
O    -1.974000000    -6.202000000     4.588000000
H    -2.240000000    -6.665000000     5.382000000
H    -1.068000000    -6.473000000     4.443000000
O     2.061000000    -0.591000000     2.148000000
H     1.515000000    -1.376000000     2.194000000
H     2.130000000    -0.402000000     1.213000000
O    -2.485000000    -5.151000000    -4.947000000
H    -2.788000000    -4.545000000    -5.624000000
H    -2.354000000    -4.601000000    -4.175000000
O    -3.997000000    -3.776000000    -0.267000000
H    -4.412000000    -4.481000000     0.229000000
H    -3.161000000    -3.632000000     0.176000000
O     0.356000000    -1.356000000     5.153000000
H    -0.554000000    -1.442000000     5.436000000
H     0.352000000    -1.649000000     4.241000000
O    -2.966000000     5.569000000    -2.450000000
H    -2.700000000     4.737000000    -2.058000000
H    -3.878000000     5.681000000    -2.181000000
O    -2.606000000     2.742000000    -2.458000000
H    -2.783000000     1.916000000    -2.007000000
H    -3.401000000     2.913000000    -2.964000000
O    -6.262000000    -2.958000000    -1.665000000
H    -5.753000000    -2.286000000    -2.118000000
H    -5.691000000    -3.254000000    -0.956000000
