158
-3010.88995
C    -0.161000000    -0.960000000    -0.951000000
H    -0.158000000    -1.813000000    -1.625000000
C     0.852000000    -0.024000000    -0.992000000
H     1.646000000    -0.158000000    -1.723000000
C     0.857000000     0.886000000     0.012000000
H     1.682000000     1.638000000     0.109000000
C    -0.213000000     0.926000000     0.957000000
H    -0.167000000     1.713000000     1.705000000
C    -1.256000000     0.008000000     0.926000000
H    -2.059000000     0.012000000     1.659000000
C    -1.184000000    -1.027000000    -0.084000000
C    -2.049000000    -2.324000000     0.039000000
O    -1.985000000    -3.096000000    -0.878000000
O    -2.882000000    -2.447000000     0.913000000
O    -1.413000000     3.654000000    -3.148000000
H    -1.327000000     4.606000000    -3.208000000
H    -1.842000000     3.401000000    -3.965000000
O     3.861000000     3.685000000     2.128000000
H     3.089000000     3.908000000     1.608000000
H     3.994000000     2.750000000     1.971000000
O    -1.924000000     3.189000000     3.959000000
H    -2.491000000     2.732000000     3.338000000
H    -1.507000000     3.877000000     3.441000000
O    -0.642000000     4.024000000    -0.488000000
H    -0.760000000     3.871000000    -1.426000000
H    -1.510000000     4.281000000    -0.177000000
O     6.665000000     3.936000000     1.871000000
H     5.712000000     3.943000000     1.965000000
H     6.874000000     3.038000000     1.615000000
O    -0.887000000    -4.003000000    -6.298000000
H    -1.285000000    -4.837000000    -6.052000000
H    -0.813000000    -3.520000000    -5.475000000
O     7.898000000     1.581000000    -0.438000000
H     8.268000000     0.881000000    -0.976000000
H     6.958000000     1.551000000    -0.618000000
O    -5.272000000    -0.800000000    -0.100000000
H    -4.771000000    -1.159000000     0.634000000
H    -4.692000000    -0.144000000    -0.487000000
O     1.760000000    -3.208000000    -2.836000000
H     2.619000000    -3.535000000    -3.102000000
H     1.934000000    -2.684000000    -2.054000000
O     3.981000000     0.832000000     2.403000000
H     3.116000000     0.543000000     2.695000000
H     4.457000000     1.018000000     3.213000000
O     2.698000000     3.978000000    -1.482000000
H     1.907000000     4.001000000    -0.944000000
H     3.388000000     3.694000000    -0.882000000
O    -0.913000000     1.044000000     5.787000000
H    -1.028000000     1.860000000     5.300000000
H    -1.261000000     0.368000000     5.207000000
O    -1.810000000    -6.609000000    -0.559000000
H    -2.194000000    -5.968000000     0.039000000
H    -1.692000000    -6.131000000    -1.380000000
O     5.480000000    -2.056000000    -3.443000000
H     5.466000000    -1.102000000    -3.515000000
H     6.404000000    -2.274000000    -3.318000000
O     4.984000000     2.951000000    -4.170000000
H     5.521000000     2.816000000    -4.951000000
H     4.112000000     3.152000000    -4.512000000
O    -5.345000000    -6.367000000    -0.592000000
H    -4.813000000    -6.995000000    -0.103000000
H    -5.387000000    -5.597000000    -0.024000000
O    -5.065000000    -0.800000000     3.730000000
H    -5.750000000    -1.375000000     3.388000000
H    -5.341000000    -0.607000000     4.626000000
O     2.792000000     2.283000000     4.929000000
H     2.300000000     3.103000000     4.881000000
H     2.174000000     1.615000000     4.635000000
O     0.495000000    -5.047000000     1.955000000
H     0.810000000    -5.922000000     1.731000000
H    -0.456000000    -5.103000000     1.862000000
O     5.854000000    -0.867000000     1.323000000
H     5.687000000    -1.749000000     1.656000000
H     5.101000000    -0.354000000     1.618000000
O     1.609000000     1.295000000    -5.529000000
H     2.558000000     1.170000000    -5.499000000
H     1.493000000     2.245000000    -5.525000000
O     1.919000000     6.466000000    -3.266000000
H     2.049000000     5.692000000    -2.719000000
H     0.994000000     6.434000000    -3.510000000
O    -0.855000000    -4.375000000    -3.050000000
H     0.073000000    -4.173000000    -2.934000000
H    -1.304000000    -3.805000000    -2.425000000
O    -4.663000000    -2.648000000    -2.166000000
H    -4.817000000    -1.938000000    -1.542000000
H    -3.932000000    -3.140000000    -1.793000000
O     4.000000000    -1.574000000    -0.966000000
H     3.641000000    -2.164000000    -0.303000000
H     4.838000000    -1.969000000    -1.209000000
O     5.697000000     3.526000000    -1.674000000
H     5.602000000     3.365000000    -2.613000000
H     5.227000000     2.803000000    -1.258000000
O     1.542000000     4.630000000     1.197000000
H     1.483000000     5.579000000     1.085000000
H     0.772000000     4.287000000     0.743000000
O    -2.230000000    -5.024000000     1.822000000
H    -2.631000000    -4.171000000     1.658000000
H    -2.819000000    -5.450000000     2.445000000
O     4.839000000     1.325000000    -0.381000000
H     5.072000000     0.617000000    -0.981000000
H     4.611000000     0.882000000     0.436000000
O     2.708000000     4.143000000    -4.855000000
H     2.711000000     4.962000000    -4.360000000
H     2.040000000     4.273000000    -5.528000000
O    -3.989000000    -4.463000000     4.151000000
H    -3.669000000    -4.447000000     5.053000000
H    -3.608000000    -3.682000000     3.749000000
O     5.912000000     0.616000000    -2.960000000
H     6.818000000     0.448000000    -3.219000000
H     5.718000000     1.483000000    -3.316000000
O    -0.952000000    -0.265000000    -5.766000000
H    -0.080000000    -0.029000000    -6.083000000
H    -0.887000000    -0.200000000    -4.814000000
O     2.284000000    -1.583000000    -6.641000000
H     3.192000000    -1.697000000    -6.921000000
H     2.337000000    -0.992000000    -5.890000000
O    -4.020000000     1.906000000     2.234000000
H    -4.489000000     1.132000000     2.547000000
H    -4.682000000     2.597000000     2.218000000
O    -2.531000000    -1.942000000     3.551000000
H    -3.278000000    -1.356000000     3.669000000
H    -2.449000000    -2.038000000     2.602000000
O     2.276000000     5.149000000     4.151000000
H     2.892000000     4.812000000     3.500000000
H     1.916000000     5.942000000     3.752000000
O     5.122000000     6.103000000    -2.031000000
H     4.263000000     5.955000000    -2.425000000
H     5.493000000     5.226000000    -1.928000000
O    -3.931000000     2.962000000    -0.424000000
H    -3.878000000     2.245000000    -1.056000000
H    -3.715000000     2.557000000     0.416000000
O     1.646000000    -3.165000000     0.655000000
H     1.326000000    -3.885000000     1.200000000
H     0.939000000    -2.520000000     0.672000000
O    -1.681000000    -6.322000000    -4.843000000
H    -1.510000000    -5.693000000    -4.142000000
H    -2.570000000    -6.635000000    -4.673000000
O    -5.844000000    -5.717000000     2.457000000
H    -6.012000000    -6.548000000     2.902000000
H    -5.176000000    -5.289000000     2.992000000
O     1.594000000     0.019000000     3.432000000
H     1.169000000    -0.838000000     3.477000000
H     1.235000000     0.423000000     2.641000000
O     1.235000000    -6.386000000    -1.972000000
H     2.169000000    -6.440000000    -2.176000000
H     1.179000000    -5.728000000    -1.280000000
O     0.170000000    -2.259000000     3.339000000
H    -0.758000000    -2.181000000     3.560000000
H     0.371000000    -3.185000000     3.474000000
O    -1.023000000     0.751000000    -3.232000000
H    -1.143000000     1.700000000    -3.202000000
H    -0.538000000     0.545000000    -2.433000000
O    -3.833000000     0.835000000    -2.109000000
H    -3.125000000     0.823000000    -2.753000000
H    -4.612000000     0.584000000    -2.605000000
O    -7.075000000    -4.365000000    -1.755000000
H    -7.262000000    -5.032000000    -2.415000000
H    -6.205000000    -4.038000000    -1.985000000
