158
-3043.61242
C    -0.573000000    -0.935000000    -1.067000000
H    -1.115000000    -1.577000000    -1.757000000
C    -0.908000000    -0.956000000     0.293000000
H    -1.777000000    -1.549000000     0.567000000
C    -0.260000000    -0.085000000     1.178000000
H    -0.556000000    -0.069000000     2.270000000
C     0.699000000     0.854000000     0.693000000
H     1.236000000     1.531000000     1.353000000
C     0.934000000     0.953000000    -0.654000000
H     1.662000000     1.657000000    -1.050000000
C     0.339000000     0.064000000    -1.507000000
C     0.648000000     0.174000000    -2.968000000
O     0.971000000     1.276000000    -3.390000000
O     0.355000000    -0.688000000    -3.733000000
O     3.599000000    -4.933000000    -4.462000000
H     3.071000000    -4.393000000    -3.875000000
H     2.963000000    -5.344000000    -5.047000000
O    -1.749000000     4.088000000    -3.495000000
H    -2.031000000     3.189000000    -3.661000000
H    -2.444000000     4.461000000    -2.953000000
O     4.978000000    -2.981000000     3.989000000
H     5.810000000    -2.586000000     3.728000000
H     4.391000000    -2.236000000     4.123000000
O     0.806000000     1.118000000     5.930000000
H     1.519000000     1.419000000     5.368000000
H     0.261000000     1.894000000     6.063000000
O    -0.371000000    -4.795000000    -4.777000000
H    -1.227000000    -4.950000000    -4.377000000
H    -0.561000000    -4.268000000    -5.553000000
O     1.422000000    -3.800000000    -2.763000000
H     0.956000000    -3.062000000    -2.370000000
H     0.818000000    -4.140000000    -3.424000000
O    -1.676000000    -2.096000000    -4.548000000
H    -0.929000000    -1.665000000    -4.133000000
H    -1.333000000    -2.418000000    -5.382000000
O     3.027000000    -4.572000000     2.399000000
H     3.108000000    -3.642000000     2.610000000
H     3.429000000    -4.657000000     1.535000000
O     0.319000000     3.874000000     6.154000000
H     1.232000000     3.987000000     6.416000000
H    -0.007000000     4.766000000     6.034000000
O    -4.010000000     1.695000000    -1.316000000
H    -4.487000000     2.439000000    -1.683000000
H    -3.881000000     1.104000000    -2.057000000
O    -6.248000000    -1.005000000     3.561000000
H    -5.609000000    -0.325000000     3.778000000
H    -5.827000000    -1.517000000     2.870000000
O    -1.796000000    -4.151000000     4.582000000
H    -1.784000000    -4.670000000     3.778000000
H    -2.659000000    -4.318000000     4.962000000
O     0.002000000    -1.603000000    -8.782000000
H     0.340000000    -1.083000000    -8.053000000
H     0.626000000    -1.453000000    -9.492000000
O     0.525000000    -1.162000000     7.021000000
H     0.601000000    -0.375000000     6.482000000
H     1.428000000    -1.391000000     7.240000000
O     0.045000000     5.651000000    -5.136000000
H    -0.546000000     5.099000000    -4.624000000
H    -0.453000000     5.869000000    -5.924000000
O    -0.492000000     3.188000000    -7.079000000
H     0.252000000     2.592000000    -6.994000000
H    -1.249000000     2.665000000    -6.815000000
O    -2.009000000     1.308000000    -4.294000000
H    -2.728000000     0.740000000    -4.020000000
H    -1.220000000     0.790000000    -4.136000000
O    -3.993000000     0.700000000     4.635000000
H    -3.483000000    -0.039000000     4.967000000
H    -3.355000000     1.244000000     4.175000000
O     1.071000000     5.910000000    -0.537000000
H     0.864000000     5.089000000    -0.983000000
H     0.352000000     6.034000000     0.083000000
O     1.303000000    -0.514000000    -6.544000000
H     0.918000000    -0.695000000    -5.687000000
H     1.861000000     0.250000000    -6.400000000
O    -5.164000000    -2.201000000     1.485000000
H    -5.389000000    -1.328000000     1.163000000
H    -4.392000000    -2.452000000     0.978000000
O    -2.569000000     2.858000000     0.861000000
H    -3.187000000     2.627000000     0.169000000
H    -2.006000000     2.089000000     0.946000000
O     2.658000000     4.955000000     3.770000000
H     3.164000000     5.597000000     3.271000000
H     2.144000000     5.479000000     4.383000000
O     5.114000000     3.270000000    -3.159000000
H     4.313000000     3.576000000    -3.586000000
H     4.839000000     2.503000000    -2.657000000
O     0.509000000     3.628000000    -2.028000000
H    -0.324000000     3.967000000    -2.357000000
H     0.567000000     2.744000000    -2.391000000
O     1.974000000    -1.867000000     2.761000000
H     1.086000000    -1.526000000     2.659000000
H     2.206000000    -1.665000000     3.667000000
O     3.332000000    -0.677000000     4.788000000
H     3.571000000    -0.467000000     5.691000000
H     3.225000000     0.175000000     4.365000000
O    -1.251000000    -5.457000000     2.072000000
H    -0.348000000    -5.769000000     2.143000000
H    -1.785000000    -6.244000000     2.176000000
O    -3.557000000    -0.853000000    -2.739000000
H    -3.689000000    -1.350000000    -1.932000000
H    -3.022000000    -1.426000000    -3.289000000
O    -2.545000000     1.526000000    -7.101000000
H    -2.253000000     0.658000000    -7.376000000
H    -2.702000000     1.440000000    -6.160000000
O     3.928000000     2.520000000     1.817000000
H     3.653000000     3.234000000     1.242000000
H     4.883000000     2.516000000     1.753000000
O     3.151000000    -2.126000000    -0.669000000
H     2.529000000    -1.595000000    -0.172000000
H     2.745000000    -2.992000000    -0.713000000
O     2.711000000     1.910000000     4.098000000
H     3.010000000     2.134000000     3.217000000
H     2.628000000     2.752000000     4.545000000
O    -3.266000000    -2.831000000    -1.152000000
H    -2.416000000    -3.158000000    -0.857000000
H    -3.727000000    -3.611000000    -1.463000000
O    -1.092000000    -3.316000000    -7.028000000
H    -0.874000000    -2.752000000    -7.770000000
H    -1.488000000    -4.092000000    -7.425000000
O     3.324000000    -1.195000000    -4.632000000
H     2.995000000    -0.299000000    -4.707000000
H     2.889000000    -1.669000000    -5.341000000
O     0.309000000     3.867000000     2.858000000
H     0.603000000     3.901000000     1.947000000
H     1.091000000     4.073000000     3.370000000
O    -0.755000000    -4.346000000    -0.909000000
H    -0.806000000    -4.944000000    -0.163000000
H     0.182000000    -4.199000000    -1.035000000
O     2.898000000     1.428000000    -5.158000000
H     2.852000000     2.322000000    -5.497000000
H     2.191000000     1.379000000    -4.514000000
O    -2.114000000    -1.240000000     5.119000000
H    -2.018000000    -2.090000000     4.689000000
H    -1.321000000    -1.148000000     5.647000000
O    -2.333000000     4.042000000     3.675000000
H    -1.382000000     4.008000000     3.777000000
H    -2.492000000     3.703000000     2.794000000
O     5.527000000    -0.581000000     2.305000000
H     5.675000000     0.082000000     2.979000000
H     4.574000000    -0.659000000     2.251000000
O     4.388000000     0.756000000    -2.205000000
H     3.599000000     0.355000000    -1.841000000
H     4.736000000     0.098000000    -2.807000000
O    -2.912000000    -4.803000000    -3.776000000
H    -3.615000000    -4.940000000    -3.141000000
H    -2.683000000    -3.879000000    -3.685000000
O    -4.900000000     0.571000000     0.960000000
H    -5.304000000     1.313000000     1.410000000
H    -4.402000000     0.967000000     0.245000000
O     3.536000000     4.450000000     0.078000000
H     2.638000000     4.632000000    -0.196000000
H     4.080000000     4.853000000    -0.599000000
O     0.035000000    -3.878000000     7.032000000
H     0.262000000    -2.949000000     7.000000000
H    -0.511000000    -4.018000000     6.259000000
O     2.496000000     4.294000000    -3.934000000
H     1.877000000     4.017000000    -3.260000000
H     1.946000000     4.553000000    -4.673000000
