158
-3058.17611
C     1.210000000    -0.832000000    -0.178000000
H     2.157000000    -1.338000000    -0.347000000
C     0.757000000     0.139000000    -1.082000000
H     1.260000000     0.302000000    -2.032000000
C    -0.412000000     0.825000000    -0.881000000
H    -0.752000000     1.526000000    -1.582000000
C    -1.115000000     0.608000000     0.312000000
H    -2.039000000     1.132000000     0.539000000
C    -0.679000000    -0.361000000     1.206000000
H    -1.184000000    -0.450000000     2.165000000
C     0.501000000    -1.102000000     0.996000000
C     0.978000000    -2.110000000     2.027000000
O     2.027000000    -2.742000000     1.877000000
O     0.251000000    -2.542000000     2.929000000
O    -2.604000000     5.120000000     2.030000000
H    -1.694000000     4.841000000     1.935000000
H    -2.951000000     5.118000000     1.138000000
O    -4.269000000    -0.532000000    -0.849000000
H    -3.501000000    -0.965000000    -1.221000000
H    -4.895000000    -0.490000000    -1.572000000
O     1.933000000    -5.335000000     6.504000000
H     1.060000000    -5.524000000     6.160000000
H     2.468000000    -5.180000000     5.726000000
O     4.611000000    -5.824000000     0.326000000
H     4.844000000    -4.920000000     0.537000000
H     3.660000000    -5.808000000     0.218000000
O    -2.563000000    -0.338000000     6.638000000
H    -2.250000000    -0.951000000     7.303000000
H    -1.940000000    -0.427000000     5.918000000
O     0.921000000     5.343000000    -2.286000000
H     0.943000000     6.296000000    -2.367000000
H     1.430000000     5.027000000    -3.033000000
O     3.339000000    -0.480000000    -6.344000000
H     3.256000000    -0.799000000    -5.446000000
H     4.183000000    -0.819000000    -6.642000000
O     1.930000000    -2.336000000    -4.590000000
H     1.520000000    -1.524000000    -4.890000000
H     2.725000000    -2.050000000    -4.139000000
O     4.235000000    -1.396000000    -3.441000000
H     4.430000000    -2.331000000    -3.388000000
H     4.938000000    -0.976000000    -2.944000000
O     6.416000000    -0.124000000    -2.019000000
H     7.145000000     0.474000000    -2.184000000
H     6.374000000    -0.194000000    -1.065000000
O     3.654000000    -7.036000000     3.626000000
H     3.230000000    -6.180000000     3.578000000
H     3.211000000    -7.561000000     2.959000000
O    -3.253000000     0.334000000     3.964000000
H    -2.531000000     0.938000000     3.788000000
H    -3.389000000     0.392000000     4.910000000
O    -3.520000000    -4.514000000     4.195000000
H    -4.167000000    -3.866000000     3.917000000
H    -4.034000000    -5.197000000     4.625000000
O    -1.594000000     7.570000000    -1.039000000
H    -2.137000000     6.782000000    -1.023000000
H    -2.206000000     8.286000000    -0.868000000
O    -1.792000000    -1.607000000    -1.741000000
H    -1.260000000    -2.370000000    -1.966000000
H    -1.168000000    -0.980000000    -1.374000000
O    -4.012000000     2.640000000    -0.906000000
H    -3.580000000     2.302000000    -1.691000000
H    -3.821000000     1.990000000    -0.230000000
O    -2.715000000    -0.416000000    -4.179000000
H    -2.700000000    -1.133000000    -3.545000000
H    -2.376000000    -0.803000000    -4.987000000
O    -2.763000000     3.803000000     5.077000000
H    -2.040000000     3.845000000     5.703000000
H    -2.416000000     3.293000000     4.345000000
O     3.398000000     4.213000000    -3.576000000
H     4.069000000     4.841000000    -3.845000000
H     3.601000000     3.420000000    -4.072000000
O    -0.996000000     2.011000000     3.736000000
H    -0.716000000     2.707000000     3.142000000
H    -0.245000000     1.870000000     4.312000000
O    -1.576000000     3.970000000    -3.025000000
H    -0.711000000     4.233000000    -2.710000000
H    -1.917000000     4.749000000    -3.466000000
O     2.963000000    -1.361000000     6.064000000
H     3.365000000    -2.018000000     5.495000000
H     2.477000000    -1.870000000     6.712000000
O     0.953000000     0.641000000    -4.671000000
H     0.233000000     1.233000000    -4.454000000
H     1.129000000     0.806000000    -5.598000000
O     1.755000000    -6.596000000    -0.081000000
H     0.805000000    -6.538000000     0.025000000
H     2.018000000    -7.313000000     0.495000000
O    -1.021000000    -5.804000000     0.017000000
H    -1.277000000    -5.212000000     0.724000000
H    -1.655000000    -5.633000000    -0.679000000
O    -1.337000000    -3.657000000     5.854000000
H    -1.015000000    -2.811000000     5.542000000
H    -2.162000000    -3.787000000     5.387000000
O     0.327000000    -4.968000000     4.252000000
H     0.478000000    -4.357000000     3.531000000
H    -0.350000000    -4.549000000     4.783000000
O     1.587000000     1.169000000     5.013000000
H     2.139000000     1.577000000     4.346000000
H     2.149000000     0.510000000     5.420000000
O     1.286000000     2.496000000     0.812000000
H     2.163000000     2.114000000     0.797000000
H     0.714000000     1.796000000     0.496000000
O     1.890000000     5.495000000     0.210000000
H     1.692000000     5.285000000    -0.703000000
H     1.856000000     4.652000000     0.662000000
O     2.197000000    -4.204000000    -0.908000000
H     1.857000000    -3.556000000    -0.291000000
H     1.989000000    -5.049000000    -0.508000000
O     0.247000000    -3.382000000    -2.456000000
H     0.767000000    -2.996000000    -3.161000000
H     0.872000000    -3.910000000    -1.959000000
O    -0.608000000    -7.279000000     5.135000000
H    -0.670000000    -7.909000000     4.418000000
H    -0.288000000    -6.477000000     4.723000000
O    -0.028000000     4.026000000     2.301000000
H     0.714000000     4.626000000     2.371000000
H     0.328000000     3.254000000     1.861000000
O    -7.045000000     2.109000000    -0.341000000
H    -7.149000000     2.699000000    -1.088000000
H    -6.098000000     2.050000000    -0.213000000
O    -0.559000000    -1.081000000     4.906000000
H     0.198000000    -0.499000000     4.969000000
H    -0.402000000    -1.593000000     4.113000000
O     0.169000000     4.344000000    -5.565000000
H    -0.312000000     4.901000000    -4.952000000
H     0.922000000     4.873000000    -5.828000000
O    -3.833000000    -1.916000000     2.542000000
H    -4.782000000    -1.895000000     2.419000000
H    -3.666000000    -1.267000000     3.225000000
O    -1.928000000    -3.873000000     1.773000000
H    -2.676000000    -3.734000000     2.354000000
H    -1.196000000    -3.444000000     2.217000000
O     3.768000000     1.515000000     0.953000000
H     4.430000000     1.843000000     0.344000000
H     3.871000000     0.564000000     0.930000000
O    -3.693000000     5.264000000    -0.763000000
H    -4.523000000     5.595000000    -1.105000000
H    -3.752000000     4.314000000    -0.868000000
O    -3.432000000     2.069000000    -3.902000000
H    -3.185000000     1.145000000    -3.871000000
H    -2.638000000     2.538000000    -3.647000000
O     4.081000000    -4.458000000    -3.138000000
H     4.320000000    -5.379000000    -3.030000000
H     3.583000000    -4.246000000    -2.348000000
O     6.225000000    -0.838000000     0.480000000
H     5.876000000    -0.981000000     1.360000000
H     6.122000000    -1.682000000     0.042000000
O    -4.895000000     0.961000000     1.473000000
H    -4.361000000     0.764000000     2.243000000
H    -4.745000000     0.222000000     0.883000000
O     4.309000000    -1.284000000     2.551000000
H     4.955000000    -1.876000000     2.937000000
H     3.606000000    -1.860000000     2.251000000
O     3.579000000     1.378000000    -3.914000000
H     4.025000000     0.662000000    -3.462000000
H     2.706000000     1.034000000    -4.104000000
O     3.246000000    -3.933000000     4.010000000
H     2.682000000    -3.503000000     3.368000000
H     4.120000000    -3.900000000     3.623000000
