158
-3024.88819
C     0.352000000    -1.312000000     0.518000000
H     0.664000000    -2.237000000     0.995000000
C     1.241000000    -0.269000000     0.381000000
H     2.308000000    -0.305000000     0.586000000
C     0.788000000     0.925000000    -0.104000000
H     1.432000000     1.746000000    -0.263000000
C    -0.531000000     1.099000000    -0.453000000
H    -0.785000000     2.085000000    -0.834000000
C    -1.505000000     0.094000000    -0.188000000
H    -2.541000000     0.261000000    -0.474000000
C    -1.093000000    -1.150000000     0.247000000
C    -2.062000000    -2.317000000     0.325000000
O    -1.799000000    -3.312000000     1.014000000
O    -3.094000000    -2.364000000    -0.351000000
O     0.868000000     6.740000000    -1.471000000
H     1.377000000     6.799000000    -2.280000000
H    -0.038000000     6.648000000    -1.764000000
O     2.449000000     1.117000000    -2.958000000
H     1.723000000     0.495000000    -2.941000000
H     3.224000000     0.578000000    -3.116000000
O    -4.360000000    -0.380000000    -4.101000000
H    -4.767000000    -0.858000000    -3.378000000
H    -4.736000000    -0.772000000    -4.889000000
O    -2.318000000    -6.355000000     3.717000000
H    -2.654000000    -5.460000000     3.749000000
H    -2.205000000    -6.534000000     2.783000000
O     2.897000000    -2.117000000     2.976000000
H     3.777000000    -1.798000000     2.777000000
H     2.792000000    -2.892000000     2.425000000
O    -0.425000000     3.235000000     3.732000000
H    -0.679000000     2.313000000     3.675000000
H    -1.255000000     3.712000000     3.738000000
O    -0.188000000    -3.483000000     5.163000000
H     0.551000000    -4.061000000     5.353000000
H     0.195000000    -2.759000000     4.668000000
O     0.002000000    -7.034000000     0.345000000
H     0.019000000    -7.693000000     1.039000000
H     0.106000000    -6.201000000     0.803000000
O     4.218000000     6.100000000     3.458000000
H     4.053000000     6.451000000     4.333000000
H     3.371000000     5.758000000     3.173000000
O    -4.228000000    -3.656000000    -4.653000000
H    -4.885000000    -3.226000000    -4.105000000
H    -3.390000000    -3.409000000    -4.261000000
O     3.341000000    -2.867000000    -2.838000000
H     3.524000000    -2.755000000    -1.906000000
H     3.724000000    -2.094000000    -3.253000000
O     3.635000000     2.258000000     2.480000000
H     3.229000000     1.507000000     2.046000000
H     3.651000000     2.941000000     1.810000000
O     7.339000000     0.869000000    -0.769000000
H     7.326000000     0.287000000    -1.529000000
H     6.501000000     1.330000000    -0.806000000
O     6.883000000     3.020000000     1.217000000
H     7.335000000     2.481000000     0.568000000
H     6.011000000     3.160000000     0.848000000
O    -0.020000000    -4.727000000     2.291000000
H    -0.136000000    -4.945000000     3.216000000
H    -0.777000000    -4.183000000     2.076000000
O     2.427000000     3.802000000    -2.986000000
H     2.457000000     2.845000000    -3.003000000
H     2.410000000     4.024000000    -2.055000000
O    -3.086000000    -6.974000000     0.801000000
H    -2.526000000    -6.713000000     0.070000000
H    -3.831000000    -7.411000000     0.388000000
O     0.498000000    -3.600000000    -3.907000000
H     0.201000000    -2.696000000    -3.801000000
H     1.450000000    -3.550000000    -3.817000000
O    -1.524000000     4.295000000    -2.680000000
H    -1.413000000     5.243000000    -2.613000000
H    -0.915000000     4.031000000    -3.370000000
O    -2.542000000    -6.661000000    -2.519000000
H    -2.285000000    -6.100000000    -1.787000000
H    -1.889000000    -6.486000000    -3.196000000
O     0.687000000     5.123000000    -5.379000000
H     1.096000000     4.448000000    -4.837000000
H     1.396000000     5.447000000    -5.934000000
O    -1.144000000     5.296000000     0.179000000
H    -1.099000000     4.705000000    -0.572000000
H    -2.025000000     5.168000000     0.532000000
O     0.271000000     7.335000000     1.678000000
H    -0.159000000     6.563000000     1.310000000
H     1.033000000     7.475000000     1.116000000
O    -2.269000000    -2.985000000    -2.805000000
H    -1.579000000    -3.649000000    -2.814000000
H    -2.479000000    -2.872000000    -1.878000000
O     4.157000000    -2.396000000    -0.126000000
H     4.926000000    -2.567000000    -0.669000000
H     4.367000000    -1.588000000     0.341000000
O    -6.834000000    -4.717000000     2.365000000
H    -6.174000000    -4.650000000     1.675000000
H    -7.566000000    -4.187000000     2.049000000
O    -2.818000000    -0.957000000     3.875000000
H    -3.492000000    -0.298000000     4.038000000
H    -2.254000000    -0.918000000     4.648000000
O     2.168000000     4.553000000    -0.048000000
H     1.419000000     4.254000000     0.467000000
H     1.925000000     5.433000000    -0.336000000
O     4.609000000     4.549000000    -5.035000000
H     3.773000000     4.231000000    -4.693000000
H     4.371000000     5.076000000    -5.797000000
O    -4.693000000    -4.477000000     0.636000000
H    -4.099000000    -5.108000000     1.042000000
H    -4.121000000    -3.770000000     0.335000000
O     0.614000000    -0.878000000    -2.932000000
H     0.667000000    -0.985000000    -1.982000000
H    -0.206000000    -0.405000000    -3.074000000
O     2.799000000    -5.173000000     1.874000000
H     3.149000000    -6.046000000     2.054000000
H     1.899000000    -5.204000000     2.199000000
O    -1.651000000     0.214000000    -3.548000000
H    -2.450000000    -0.186000000    -3.203000000
H    -1.795000000     0.258000000    -4.493000000
O    -5.554000000     1.022000000     3.545000000
H    -6.340000000     0.783000000     4.036000000
H    -5.848000000     1.080000000     2.635000000
O    -5.513000000    -2.376000000    -2.369000000
H    -6.079000000    -2.374000000    -1.597000000
H    -4.655000000    -2.640000000    -2.037000000
O     2.005000000     4.191000000     3.522000000
H     2.662000000     3.505000000     3.409000000
H     1.168000000     3.729000000     3.488000000
O     4.563000000     3.346000000    -0.129000000
H     5.087000000     3.796000000    -0.792000000
H     3.787000000     3.896000000    -0.022000000
O    -6.366000000     1.637000000    -3.294000000
H    -5.486000000     1.483000000    -3.638000000
H    -6.443000000     2.590000000    -3.251000000
O     4.721000000    -0.173000000    -3.205000000
H     5.376000000    -0.716000000    -2.767000000
H     5.201000000     0.609000000    -3.477000000
O    -5.407000000    -5.946000000    -1.646000000
H    -4.456000000    -5.951000000    -1.754000000
H    -5.566000000    -5.312000000    -0.947000000
O     5.416000000    -1.211000000     2.505000000
H     6.251000000    -1.653000000     2.348000000
H     5.547000000    -0.734000000     3.324000000
O     0.989000000    -0.654000000     4.542000000
H     1.810000000    -0.663000000     4.049000000
H     0.321000000    -0.440000000     3.891000000
O    -0.890000000    -4.855000000    -1.282000000
H    -0.122000000    -5.326000000    -0.959000000
H    -1.321000000    -4.529000000    -0.491000000
O     4.191000000    -5.527000000    -0.877000000
H     4.159000000    -4.789000000    -1.485000000
H     3.755000000    -5.206000000    -0.087000000
O    -4.190000000     3.698000000    -3.432000000
H    -3.313000000     3.805000000    -3.062000000
H    -4.045000000     3.246000000    -4.263000000
O     0.020000000     2.138000000    -4.520000000
H    -0.661000000     1.533000000    -4.224000000
H     0.839000000     1.742000000    -4.221000000
O    -3.175000000    -3.585000000     3.372000000
H    -2.706000000    -3.396000000     2.559000000
H    -3.201000000    -2.747000000     3.833000000
O    -0.984000000     0.838000000     2.965000000
H    -1.710000000     0.222000000     3.063000000
H    -0.708000000     0.740000000     2.054000000
