158
-2998.56947
C     1.286000000     0.017000000    -0.773000000
H     2.293000000     0.004000000    -1.182000000
C     1.055000000     0.464000000     0.519000000
H     1.870000000     0.847000000     1.128000000
C    -0.185000000     0.340000000     1.128000000
H    -0.251000000     0.835000000     2.244000000
C    -1.264000000    -0.131000000     0.465000000
H    -2.215000000    -0.172000000     0.991000000
C    -1.098000000    -0.536000000    -0.866000000
H    -1.983000000    -0.709000000    -1.473000000
C     0.173000000    -0.418000000    -1.499000000
C     0.407000000    -0.934000000    -2.909000000
O     1.536000000    -0.968000000    -3.347000000
O    -0.522000000    -1.204000000    -3.653000000
O    -0.007000000     2.956000000    -4.601000000
H     0.307000000     2.169000000    -5.046000000
H    -0.341000000     2.640000000    -3.761000000
O    -2.392000000     6.213000000     0.690000000
H    -1.599000000     6.605000000     0.323000000
H    -2.158000000     5.298000000     0.843000000
O     1.613000000     0.920000000    -5.198000000
H     1.220000000     0.367000000    -5.873000000
H     1.693000000     0.347000000    -4.435000000
O    -5.358000000    -1.254000000     2.306000000
H    -5.672000000    -0.351000000     2.249000000
H    -4.943000000    -1.308000000     3.167000000
O     4.320000000    -1.177000000    -3.510000000
H     3.370000000    -1.166000000    -3.397000000
H     4.482000000    -0.569000000    -4.232000000
O    -5.918000000    -1.740000000    -1.050000000
H    -5.035000000    -1.584000000    -1.387000000
H    -5.808000000    -1.782000000    -0.100000000
O     4.354000000     0.273000000    -5.794000000
H     3.458000000     0.424000000    -5.493000000
H     4.600000000     1.087000000    -6.233000000
O     6.855000000     1.047000000    -3.361000000
H     6.259000000     0.648000000    -2.727000000
H     7.612000000     1.317000000    -2.841000000
O     1.742000000    -2.917000000    -5.076000000
H     2.238000000    -2.613000000    -5.837000000
H     1.685000000    -2.151000000    -4.505000000
O     5.043000000    -3.120000000    -1.763000000
H     4.829000000    -2.482000000    -2.443000000
H     4.763000000    -2.704000000    -0.948000000
O    -2.471000000     0.824000000    -3.532000000
H    -1.758000000     0.220000000    -3.324000000
H    -2.628000000     0.695000000    -4.467000000
O     0.544000000    -5.391000000    -4.580000000
H     0.874000000    -4.492000000    -4.578000000
H     0.667000000    -5.689000000    -5.481000000
O     1.899000000    -1.561000000     2.901000000
H     1.321000000    -1.754000000     3.640000000
H     1.308000000    -1.470000000     2.153000000
O     1.742000000    -5.334000000    -1.941000000
H     1.360000000    -5.181000000    -2.805000000
H     1.479000000    -4.572000000    -1.425000000
O    -3.514000000     4.422000000    -2.521000000
H    -3.620000000     3.672000000    -1.935000000
H    -2.573000000     4.596000000    -2.519000000
O    -4.043000000     1.996000000    -1.291000000
H    -3.269000000     1.649000000    -1.736000000
H    -3.838000000     1.917000000    -0.359000000
O     5.146000000     4.166000000     0.985000000
H     4.450000000     3.566000000     0.717000000
H     5.905000000     3.601000000     1.133000000
O     4.400000000    -2.177000000     4.036000000
H     4.731000000    -1.371000000     4.433000000
H     3.547000000    -1.935000000     3.677000000
O    -1.829000000     3.584000000     1.200000000
H    -2.282000000     2.766000000     1.404000000
H    -0.986000000     3.510000000     1.649000000
O    -1.859000000    -4.011000000    -2.798000000
H    -1.132000000    -3.508000000    -3.164000000
H    -1.669000000    -4.917000000    -3.040000000
O     1.099000000    -3.378000000    -0.004000000
H     1.519000000    -2.524000000    -0.103000000
H     0.256000000    -3.185000000     0.407000000
O     4.331000000    -2.019000000     0.837000000
H     3.952000000    -2.854000000     1.112000000
H     3.916000000    -1.369000000     1.403000000
O    -3.288000000    -0.547000000    -5.753000000
H    -2.801000000    -1.366000000    -5.656000000
H    -3.352000000    -0.418000000    -6.699000000
O     1.925000000     1.648000000     4.069000000
H     2.592000000     1.969000000     4.675000000
H     2.377000000     0.990000000     3.541000000
O    -4.024000000    -2.052000000    -2.972000000
H    -3.136000000    -1.877000000    -2.661000000
H    -4.006000000    -1.810000000    -3.898000000
O    -0.443000000     0.607000000     5.074000000
H    -0.976000000     1.356000000     4.807000000
H     0.459000000     0.887000000     4.919000000
O    -0.848000000     2.865000000    -1.762000000
H    -0.931000000     2.546000000    -0.863000000
H    -0.344000000     3.676000000    -1.682000000
O     0.727000000     4.790000000    -1.332000000
H     1.088000000     5.172000000    -0.532000000
H     1.480000000     4.704000000    -1.917000000
O     4.265000000     1.853000000    -0.143000000
H     4.882000000     1.126000000    -0.228000000
H     3.862000000     1.927000000    -1.008000000
O     1.204000000     5.718000000     1.183000000
H     0.923000000     4.987000000     1.733000000
H     2.065000000     5.957000000     1.524000000
O     3.128000000     2.343000000    -2.594000000
H     3.280000000     3.283000000    -2.500000000
H     2.980000000     2.217000000    -3.532000000
O    -4.201000000     2.224000000     1.910000000
H    -4.660000000     2.927000000     2.370000000
H    -4.015000000     1.575000000     2.589000000
O    -3.957000000    -4.049000000     1.366000000
H    -3.145000000    -4.083000000     0.860000000
H    -4.058000000    -3.126000000     1.596000000
O    -4.711000000     2.284000000    -4.075000000
H    -3.914000000     1.966000000    -3.650000000
H    -4.772000000     3.203000000    -3.812000000
O    -3.753000000     0.926000000     4.094000000
H    -3.734000000    -0.027000000     4.182000000
H    -4.052000000     1.240000000     4.947000000
O    -1.176000000    -4.199000000    -7.883000000
H    -0.996000000    -3.614000000    -7.147000000
H    -0.558000000    -4.922000000    -7.770000000
O    -1.086000000     1.880000000     7.483000000
H    -1.026000000     1.040000000     7.029000000
H    -1.028000000     1.655000000     8.412000000
O     0.377000000    -2.118000000     4.975000000
H     0.024000000    -1.232000000     5.060000000
H     0.035000000    -2.586000000     5.737000000
O     5.635000000    -4.164000000    -4.617000000
H     5.279000000    -5.000000000    -4.916000000
H     5.002000000    -3.851000000    -3.970000000
O    -1.203000000    -2.071000000    -5.936000000
H    -0.717000000    -1.556000000    -6.580000000
H    -0.903000000    -1.740000000    -5.089000000
O     6.127000000    -0.163000000    -0.865000000
H     6.940000000    -0.666000000    -0.819000000
H     5.604000000    -0.486000000    -0.131000000
O    -0.277000000    -3.563000000     2.634000000
H    -0.371000000    -3.163000000     3.499000000
H     0.378000000    -4.250000000     2.758000000
O     0.738000000    -0.435000000    -7.720000000
H     1.349000000    -0.693000000    -8.410000000
H    -0.069000000    -0.213000000    -8.185000000
O     0.568000000     3.339000000     2.484000000
H     0.227000000     3.505000000     3.363000000
H     0.950000000     2.463000000     2.536000000
O    -1.156000000     3.412000000     5.267000000
H    -1.221000000     2.963000000     6.110000000
H    -1.995000000     3.861000000     5.169000000
O    -2.966000000    -3.391000000     4.431000000
H    -2.331000000    -3.690000000     3.781000000
H    -3.002000000    -4.098000000     5.074000000
O     1.405000000     3.982000000     7.504000000
H     1.141000000     3.275000000     6.915000000
H     1.827000000     4.624000000     6.932000000
O    -2.067000000    -5.163000000    -0.215000000
H    -1.735000000    -6.029000000    -0.452000000
H    -1.745000000    -4.586000000    -0.908000000
