158
-3049.92799
C     1.421000000     0.046000000    -0.312000000
H     2.493000000     0.216000000    -0.378000000
C     0.812000000     0.138000000     0.923000000
H     1.435000000     0.500000000     1.737000000
C    -0.556000000     0.033000000     1.090000000
H    -0.984000000     0.024000000     2.067000000
C    -1.323000000    -0.031000000    -0.028000000
H    -2.385000000    -0.079000000     0.197000000
C    -0.780000000    -0.145000000    -1.318000000
H    -1.415000000    -0.283000000    -2.189000000
C     0.619000000    -0.121000000    -1.474000000
C     1.328000000    -0.202000000    -2.802000000
O     2.553000000    -0.179000000    -2.796000000
O     0.743000000    -0.367000000    -3.863000000
O     1.341000000    -4.053000000     3.847000000
H     0.907000000    -4.338000000     3.044000000
H     0.679000000    -4.164000000     4.530000000
O    -3.209000000     0.014000000     7.539000000
H    -4.158000000     0.099000000     7.444000000
H    -2.849000000     0.646000000     6.917000000
O     3.200000000     2.359000000    -3.372000000
H     2.779000000     2.717000000    -4.153000000
H     2.866000000     1.464000000    -3.307000000
O    -3.897000000    -0.822000000     2.386000000
H    -3.188000000    -1.464000000     2.393000000
H    -4.241000000    -0.836000000     3.279000000
O     4.753000000     0.791000000    -1.554000000
H     3.899000000     0.388000000    -1.710000000
H     4.755000000     1.570000000    -2.110000000
O    -2.024000000     4.316000000     4.316000000
H    -1.140000000     4.677000000     4.247000000
H    -2.337000000     4.276000000     3.412000000
O    -6.312000000    -0.012000000     0.740000000
H    -6.212000000    -0.089000000    -0.209000000
H    -5.521000000    -0.413000000     1.098000000
O     3.708000000    -2.279000000    -3.663000000
H     2.972000000    -2.812000000    -3.963000000
H     3.306000000    -1.464000000    -3.361000000
O     5.515000000    -1.438000000    -0.176000000
H     5.306000000    -0.592000000    -0.571000000
H     5.214000000    -1.361000000     0.730000000
O     2.316000000    -4.075000000    -5.050000000
H     3.191000000    -4.392000000    -5.274000000
H     1.758000000    -4.851000000    -5.108000000
O    -1.865000000     3.083000000    -2.818000000
H    -2.141000000     2.330000000    -3.340000000
H    -2.376000000     3.815000000    -3.165000000
O    -4.720000000     2.372000000     4.123000000
H    -4.743000000     2.018000000     5.012000000
H    -5.373000000     3.071000000     4.126000000
O    -0.548000000     0.146000000    -6.401000000
H    -0.220000000    -0.004000000    -5.515000000
H    -1.491000000    -0.007000000    -6.337000000
O     3.574000000    -4.551000000    -2.106000000
H     4.462000000    -4.530000000    -1.749000000
H     3.549000000    -3.825000000    -2.729000000
O     2.599000000    -1.278000000     3.481000000
H     3.061000000    -1.433000000     4.305000000
H     2.307000000    -2.146000000     3.203000000
O     2.802000000    -3.803000000     0.546000000
H     2.957000000    -4.117000000    -0.345000000
H     3.665000000    -3.822000000     0.960000000
O    -4.973000000    -0.918000000    -5.400000000
H    -4.397000000    -1.326000000    -4.754000000
H    -5.648000000    -1.575000000    -5.569000000
O    -1.230000000    -3.751000000     5.835000000
H    -1.312000000    -4.223000000     6.664000000
H    -0.928000000    -2.878000000     6.086000000
O    -4.013000000     2.628000000    -1.108000000
H    -3.165000000     2.850000000    -1.493000000
H    -3.795000000     2.197000000    -0.281000000
O    -6.684000000     2.892000000     0.166000000
H    -5.826000000     3.076000000    -0.216000000
H    -6.698000000     1.942000000     0.277000000
O     5.394000000    -0.064000000     3.193000000
H     4.447000000    -0.136000000     3.317000000
H     5.551000000     0.874000000     3.084000000
O    -1.479000000     4.958000000     1.142000000
H    -1.262000000     4.337000000     0.446000000
H    -0.643000000     5.137000000     1.572000000
O    -3.794000000    -1.622000000    -2.809000000
H    -4.025000000    -2.517000000    -2.559000000
H    -2.862000000    -1.666000000    -3.020000000
O    -1.310000000    -1.994000000    -4.119000000
H    -0.554000000    -1.467000000    -3.860000000
H    -1.149000000    -2.205000000    -5.039000000
O     0.173000000    -3.292000000     0.690000000
H     0.106000000    -2.519000000     0.130000000
H     1.110000000    -3.487000000     0.717000000
O    -3.598000000     1.804000000    -4.866000000
H    -3.550000000     0.993000000    -5.372000000
H    -3.659000000     2.495000000    -5.525000000
O    -0.747000000    -4.509000000    -3.125000000
H    -0.427000000    -4.661000000    -2.236000000
H    -0.790000000    -3.557000000    -3.205000000
O     1.598000000     1.247000000     4.960000000
H     2.076000000     0.853000000     5.690000000
H     1.093000000     0.525000000     4.586000000
O    -5.523000000     0.107000000    -1.807000000
H    -5.168000000     0.995000000    -1.847000000
H    -4.995000000    -0.390000000    -2.432000000
O    -0.570000000     3.009000000    -0.455000000
H    -0.340000000     2.126000000    -0.165000000
H    -1.028000000     2.876000000    -1.285000000
O     2.884000000     5.676000000    -1.007000000
H     2.864000000     4.823000000    -0.574000000
H     3.413000000     6.226000000    -0.429000000
O     1.002000000    -0.161000000    -8.805000000
H     0.411000000    -0.909000000    -8.714000000
H     0.885000000     0.337000000    -7.996000000
O     6.019000000     3.463000000     0.085000000
H     6.370000000     2.704000000    -0.380000000
H     5.600000000     3.989000000    -0.596000000
O     3.236000000     3.898000000     1.048000000
H     2.950000000     3.846000000     1.960000000
H     4.046000000     3.389000000     1.022000000
O     4.848000000     4.428000000    -2.136000000
H     4.222000000     5.101000000    -1.866000000
H     4.348000000     3.856000000    -2.718000000
O    -3.729000000     1.705000000     1.317000000
H    -3.286000000     0.953000000     1.710000000
H    -4.357000000     1.987000000     1.981000000
O    -5.262000000    -3.090000000     0.836000000
H    -4.782000000    -3.917000000     0.878000000
H    -4.739000000    -2.482000000     1.359000000
O    -1.750000000    -0.736000000     4.799000000
H    -1.504000000    -1.488000000     4.261000000
H    -2.698000000    -0.665000000     4.693000000
O    -0.037000000    -3.086000000    -6.513000000
H     0.844000000    -2.766000000    -6.322000000
H     0.067000000    -3.615000000    -7.304000000
O     6.589000000    -1.897000000    -3.494000000
H     5.655000000    -1.894000000    -3.704000000
H     6.663000000    -2.481000000    -2.739000000
O     2.649000000     0.435000000    -5.712000000
H     3.303000000    -0.187000000    -6.032000000
H     2.252000000    -0.001000000    -4.958000000
O    -1.784000000    -2.726000000     2.600000000
H    -1.969000000    -3.660000000     2.498000000
H    -0.970000000    -2.588000000     2.115000000
O     2.018000000     3.051000000    -5.807000000
H     1.548000000     3.157000000    -6.634000000
H     2.228000000     2.118000000    -5.768000000
O     2.602000000     3.857000000     3.719000000
H     2.087000000     4.515000000     4.185000000
H     2.196000000     3.023000000     3.957000000
O    -2.072000000     1.842000000     5.713000000
H    -1.723000000     1.206000000     5.088000000
H    -2.193000000     2.641000000     5.199000000
O    -2.005000000    -5.365000000     3.700000000
H    -1.898000000    -4.801000000     4.466000000
H    -1.445000000    -6.121000000     3.879000000
O    -3.976000000    -4.157000000    -1.899000000
H    -3.478000000    -4.560000000    -1.189000000
H    -3.990000000    -4.821000000    -2.589000000
O    -4.953000000    -0.347000000     4.828000000
H    -5.702000000     0.135000000     4.476000000
H    -5.070000000    -0.310000000     5.778000000
