158
-3019.71195
C     1.346000000    -0.163000000    -0.545000000
H     2.391000000    -0.209000000    -0.840000000
C     0.908000000     0.913000000     0.195000000
H     1.529000000     1.793000000     0.346000000
C    -0.395000000     0.980000000     0.691000000
H    -0.608000000     1.696000000     1.502000000
C    -1.281000000    -0.091000000     0.309000000
H    -2.297000000    -0.054000000     0.695000000
C    -0.844000000    -1.123000000    -0.480000000
H    -1.618000000    -1.829000000    -0.769000000
C     0.488000000    -1.174000000    -0.955000000
C     0.999000000    -2.420000000    -1.720000000
O     2.139000000    -2.438000000    -2.185000000
O     0.282000000    -3.404000000    -1.816000000
O     0.487000000     4.228000000    -0.719000000
H     1.329000000     4.682000000    -0.714000000
H     0.002000000     4.613000000     0.011000000
O    -1.824000000     2.759000000    -1.414000000
H    -1.994000000     1.849000000    -1.172000000
H    -0.958000000     2.946000000    -1.051000000
O    -0.859000000     1.928000000     4.931000000
H    -0.372000000     1.108000000     4.848000000
H    -0.203000000     2.612000000     4.795000000
O     6.331000000    -1.922000000    -2.986000000
H     6.755000000    -1.405000000    -2.301000000
H     7.054000000    -2.357000000    -3.439000000
O    -2.636000000     4.156000000     3.633000000
H    -2.307000000     3.302000000     3.913000000
H    -1.848000000     4.673000000     3.464000000
O    -5.476000000     5.170000000     3.680000000
H    -4.598000000     4.828000000     3.511000000
H    -5.758000000     4.722000000     4.478000000
O    -3.752000000    -3.642000000     0.660000000
H    -4.176000000    -4.337000000     1.163000000
H    -3.463000000    -4.072000000    -0.145000000
O    -4.836000000    -1.258000000     0.695000000
H    -4.737000000    -0.815000000     1.538000000
H    -4.274000000    -2.030000000     0.762000000
O    -3.512000000     3.399000000     0.735000000
H    -3.017000000     3.735000000     1.482000000
H    -2.843000000     3.161000000     0.092000000
O     4.381000000    -3.720000000    -1.894000000
H     4.801000000    -3.151000000    -2.538000000
H     3.463000000    -3.450000000    -1.897000000
O     5.254000000     0.849000000     0.560000000
H     5.083000000     0.911000000    -0.380000000
H     5.735000000     0.028000000     0.663000000
O     1.599000000     1.837000000    -5.015000000
H     0.828000000     1.278000000    -4.923000000
H     2.326000000     1.296000000    -4.708000000
O    -0.475000000    -1.562000000     3.060000000
H     0.156000000    -1.067000000     3.582000000
H    -0.571000000    -1.054000000     2.254000000
O    -6.559000000     0.525000000    -2.708000000
H    -6.162000000     0.949000000    -3.469000000
H    -5.814000000     0.237000000    -2.179000000
O    -5.904000000     2.338000000    -0.076000000
H    -5.265000000     2.866000000     0.403000000
H    -6.407000000     1.893000000     0.607000000
O    -2.560000000     1.966000000    -3.846000000
H    -2.180000000     2.697000000    -4.334000000
H    -2.570000000     2.265000000    -2.937000000
O     1.211000000     3.790000000     4.475000000
H     2.131000000     3.533000000     4.421000000
H     1.117000000     4.483000000     3.821000000
O     4.419000000     4.233000000     1.153000000
H     4.968000000     4.948000000     1.475000000
H     4.684000000     3.474000000     1.672000000
O     4.763000000    -3.250000000     2.794000000
H     4.071000000    -3.048000000     2.165000000
H     4.525000000    -4.109000000     3.145000000
O     5.618000000     1.787000000     2.922000000
H     5.572000000     1.449000000     2.028000000
H     5.813000000     1.019000000     3.459000000
O     1.427000000     5.846000000     2.676000000
H     1.124000000     6.644000000     3.107000000
H     2.371000000     5.830000000     2.837000000
O    -0.011000000    -5.066000000    -3.912000000
H     0.151000000    -4.451000000    -3.196000000
H     0.491000000    -5.846000000    -3.676000000
O     1.967000000    -5.851000000     1.326000000
H     1.282000000    -5.574000000     0.717000000
H     1.607000000    -5.664000000     2.193000000
O     3.863000000    -6.023000000    -0.442000000
H     3.403000000    -5.840000000     0.377000000
H     3.976000000    -5.164000000    -0.850000000
O    -2.035000000    -6.520000000    -4.377000000
H    -1.291000000    -5.930000000    -4.257000000
H    -2.740000000    -6.124000000    -3.864000000
O    -0.354000000    -0.267000000    -4.360000000
H     0.134000000    -1.066000000    -4.159000000
H    -1.263000000    -0.484000000    -4.154000000
O    -4.277000000     0.502000000    -1.218000000
H    -4.562000000     1.357000000    -0.896000000
H    -4.515000000    -0.109000000    -0.521000000
O     0.796000000    -1.022000000    -6.668000000
H    -0.025000000    -0.697000000    -6.297000000
H     1.204000000    -1.511000000    -5.953000000
O    -0.645000000    -4.916000000     0.115000000
H    -1.395000000    -5.403000000    -0.227000000
H    -0.276000000    -4.476000000    -0.651000000
O     4.788000000     1.073000000    -2.362000000
H     4.823000000     2.024000000    -2.465000000
H     5.703000000     0.794000000    -2.386000000
O     3.829000000     3.056000000     4.388000000
H     3.831000000     2.698000000     5.275000000
H     4.420000000     2.485000000     3.897000000
O     3.289000000     5.033000000    -1.058000000
H     3.861000000     4.572000000    -1.671000000
H     3.637000000     4.812000000    -0.194000000
O    -2.920000000    -0.556000000    -3.332000000
H    -2.925000000     0.355000000    -3.627000000
H    -3.153000000    -0.509000000    -2.405000000
O    -0.750000000     4.792000000    -3.680000000
H    -0.882000000     4.677000000    -2.739000000
H    -1.599000000     5.091000000    -4.006000000
O    -1.132000000     4.499000000     1.415000000
H    -1.555000000     5.338000000     1.231000000
H    -0.271000000     4.735000000     1.759000000
O    -2.755000000    -1.993000000     5.393000000
H    -3.062000000    -1.586000000     4.583000000
H    -2.157000000    -2.682000000     5.103000000
O     6.791000000    -5.225000000    -1.599000000
H     6.645000000    -5.602000000    -0.732000000
H     5.935000000    -4.888000000    -1.861000000
O     4.545000000    -2.968000000    -5.658000000
H     5.497000000    -2.890000000    -5.584000000
H     4.205000000    -2.237000000    -5.142000000
O    -1.114000000    -4.433000000     2.770000000
H    -0.851000000    -3.524000000     2.919000000
H    -0.785000000    -4.636000000     1.894000000
O     3.443000000    -1.001000000    -3.784000000
H     3.953000000    -0.320000000    -3.346000000
H     2.956000000    -1.428000000    -3.079000000
O     1.739000000    -0.146000000     4.675000000
H     2.549000000    -0.546000000     4.360000000
H     2.026000000     0.637000000     5.145000000
O    -3.366000000     1.557000000     5.426000000
H    -2.439000000     1.788000000     5.359000000
H    -3.488000000     1.318000000     6.344000000
O     2.755000000    -2.946000000     0.972000000
H     1.938000000    -3.399000000     1.183000000
H     2.654000000    -2.685000000     0.056000000
O     1.068000000    -7.363000000    -2.838000000
H     0.459000000    -7.702000000    -2.182000000
H     1.934000000    -7.597000000    -2.504000000
O    -3.145000000    -6.076000000    -1.022000000
H    -3.809000000    -6.354000000    -1.653000000
H    -3.391000000    -6.516000000    -0.208000000
O    -1.626000000     6.911000000     0.405000000
H    -1.091000000     7.267000000    -0.305000000
H    -1.943000000     7.681000000     0.877000000
O     1.308000000    -2.752000000    -4.807000000
H     1.108000000    -3.678000000    -4.943000000
H     1.650000000    -2.710000000    -3.914000000
O    -4.079000000    -0.040000000     3.113000000
H    -4.812000000    -0.013000000     3.727000000
H    -3.510000000     0.679000000     3.387000000
