158
-3036.77417
C     1.217000000    -0.102000000    -0.861000000
H     2.182000000    -0.190000000    -1.353000000
C     1.138000000     0.339000000     0.481000000
H     2.043000000     0.732000000     0.939000000
C     0.008000000     0.370000000     1.189000000
H     0.005000000     0.703000000     2.181000000
C    -1.095000000    -0.089000000     0.646000000
H    -2.017000000    -0.158000000     1.218000000
C    -1.154000000    -0.579000000    -0.707000000
H    -2.053000000    -0.975000000    -1.174000000
C     0.015000000    -0.530000000    -1.468000000
C    -0.069000000    -0.995000000    -2.910000000
O     0.949000000    -0.928000000    -3.629000000
O    -1.150000000    -1.284000000    -3.480000000
O     0.262000000     3.209000000    -2.214000000
H     0.903000000     3.306000000    -1.510000000
H    -0.577000000     3.422000000    -1.805000000
O    -3.836000000     4.466000000     0.855000000
H    -4.759000000     4.220000000     0.903000000
H    -3.699000000     5.033000000     1.614000000
O     0.664000000    -0.345000000    -6.235000000
H     0.178000000    -1.110000000    -6.545000000
H     0.714000000    -0.461000000    -5.287000000
O     0.540000000     2.655000000     6.146000000
H     1.448000000     2.911000000     5.982000000
H     0.533000000     2.370000000     7.060000000
O     3.302000000    -1.630000000    -4.502000000
H     2.520000000    -1.265000000    -4.087000000
H     4.008000000    -1.038000000    -4.244000000
O    -1.571000000     3.409000000     4.927000000
H    -0.720000000     3.140000000     5.271000000
H    -1.523000000     3.216000000     3.991000000
O     2.939000000    -0.759000000     5.920000000
H     3.612000000    -0.103000000     5.741000000
H     2.347000000    -0.706000000     5.169000000
O    -0.656000000    -3.869000000     4.290000000
H    -0.513000000    -3.603000000     3.382000000
H    -0.244000000    -3.179000000     4.810000000
O     1.349000000    -3.610000000    -3.238000000
H     2.250000000    -3.390000000    -3.000000000
H     1.116000000    -2.971000000    -3.911000000
O     4.958000000    -0.421000000    -1.796000000
H     4.779000000     0.415000000    -1.367000000
H     5.763000000    -0.268000000    -2.291000000
O     3.736000000     0.574000000    -7.119000000
H     2.941000000     0.193000000    -7.493000000
H     3.651000000     1.513000000    -7.283000000
O    -5.330000000     1.304000000    -5.289000000
H    -5.310000000     2.171000000    -5.695000000
H    -4.490000000     0.910000000    -5.524000000
O     3.829000000     3.151000000    -4.953000000
H     3.618000000     4.042000000    -4.676000000
H     3.020000000     2.659000000    -4.817000000
O    -2.303000000     0.602000000    -5.048000000
H    -2.124000000     1.431000000    -4.605000000
H    -1.782000000    -0.043000000    -4.571000000
O     1.431000000    -3.776000000    -6.805000000
H     0.528000000    -3.789000000    -6.488000000
H     1.963000000    -3.878000000    -6.015000000
O    -0.127000000    -2.914000000     1.736000000
H    -0.360000000    -3.514000000     1.027000000
H     0.225000000    -2.144000000     1.290000000
O     0.490000000    -4.366000000    -0.675000000
H     1.144000000    -3.968000000    -0.100000000
H     0.655000000    -3.975000000    -1.533000000
O     0.061000000     2.247000000    -7.037000000
H     0.332000000     1.353000000    -6.829000000
H    -0.155000000     2.635000000    -6.189000000
O     1.451000000     5.877000000     3.243000000
H     0.792000000     6.469000000     3.606000000
H     2.288000000     6.264000000     3.501000000
O     1.346000000     3.445000000     2.181000000
H     1.626000000     2.740000000     2.764000000
H     1.466000000     4.244000000     2.695000000
O     5.450000000    -1.670000000     0.809000000
H     4.627000000    -2.158000000     0.768000000
H     5.391000000    -1.040000000     0.091000000
O     4.572000000     2.426000000     1.943000000
H     4.530000000     3.296000000     2.339000000
H     4.717000000     1.833000000     2.680000000
O    -1.805000000     2.903000000     2.067000000
H    -2.614000000     3.329000000     1.785000000
H    -1.418000000     2.565000000     1.259000000
O    -1.163000000    -5.334000000    -3.785000000
H    -0.296000000    -5.295000000    -3.380000000
H    -1.055000000    -5.933000000    -4.523000000
O    -2.550000000    -4.374000000    -0.165000000
H    -2.110000000    -5.206000000    -0.341000000
H    -2.482000000    -3.888000000    -0.988000000
O     3.369000000    -3.314000000     0.764000000
H     3.723000000    -4.202000000     0.817000000
H     3.329000000    -3.128000000    -0.175000000
O    -3.081000000    -0.491000000     5.494000000
H    -3.410000000     0.407000000     5.518000000
H    -3.296000000    -0.802000000     4.615000000
O    -5.734000000    -0.187000000    -2.987000000
H    -5.798000000    -1.134000000    -3.111000000
H    -5.614000000     0.162000000    -3.870000000
O     3.637000000    -4.251000000    -5.226000000
H     4.556000000    -4.314000000    -5.485000000
H     3.506000000    -3.323000000    -5.031000000
O    -2.257000000     3.462000000    -1.216000000
H    -2.957000000     2.860000000    -1.468000000
H    -2.699000000     4.150000000    -0.719000000
O    -5.805000000    -3.013000000    -3.120000000
H    -6.281000000    -3.827000000    -3.282000000
H    -4.884000000    -3.247000000    -3.238000000
O     4.128000000     2.163000000    -0.927000000
H     4.126000000     2.096000000     0.028000000
H     3.619000000     2.953000000    -1.112000000
O     3.149000000     3.110000000     4.910000000
H     3.489000000     3.766000000     4.302000000
H     3.662000000     2.323000000     4.725000000
O     2.297000000     4.063000000    -0.430000000
H     2.520000000     4.976000000    -0.248000000
H     2.096000000     3.690000000     0.428000000
O    -6.140000000     0.798000000     0.209000000
H    -6.412000000    -0.065000000    -0.103000000
H    -5.774000000     0.634000000     1.078000000
O     4.781000000     0.775000000     4.083000000
H     4.688000000    -0.170000000     3.963000000
H     5.541000000     0.869000000     4.659000000
O    -4.056000000    -1.842000000     3.109000000
H    -3.934000000    -2.493000000     2.418000000
H    -4.841000000    -1.360000000     2.848000000
O     3.802000000    -3.392000000    -1.971000000
H     4.631000000    -3.871000000    -1.938000000
H     4.056000000    -2.488000000    -2.155000000
O    -0.901000000    -2.966000000    -5.702000000
H    -1.814000000    -3.230000000    -5.589000000
H    -0.676000000    -2.525000000    -4.883000000
O    -4.257000000    -4.137000000     1.745000000
H    -4.019000000    -4.908000000     2.260000000
H    -3.581000000    -4.083000000     1.069000000
O     1.609000000     1.747000000    -4.350000000
H     1.222000000     2.414000000    -3.782000000
H     1.319000000     0.916000000    -3.974000000
O    -2.685000000     0.250000000    -7.783000000
H    -3.405000000    -0.359000000    -7.619000000
H    -2.390000000     0.513000000    -6.912000000
O    -1.779000000     5.842000000     2.776000000
H    -1.129000000     5.225000000     2.440000000
H    -1.269000000     6.479000000     3.276000000
O    -0.122000000    -0.908000000     4.350000000
H    -0.788000000    -0.409000000     3.878000000
H    -0.371000000    -0.829000000     5.271000000
O    -3.811000000     1.896000000     4.896000000
H    -3.026000000     2.351000000     4.592000000
H    -4.354000000     2.584000000     5.281000000
O     2.372000000    -2.237000000     3.180000000
H     1.449000000    -2.484000000     3.137000000
H     2.728000000    -2.492000000     2.328000000
O    -2.875000000    -3.531000000    -2.794000000
H    -2.320000000    -4.172000000    -3.239000000
H    -2.337000000    -2.741000000    -2.745000000
O    -5.797000000     0.591000000     2.926000000
H    -6.626000000     0.795000000     3.358000000
H    -5.137000000     1.051000000     3.444000000
