158
-3029.80902
C    -0.431000000     1.427000000    -0.369000000
H    -0.660000000     2.461000000    -0.613000000
C     0.628000000     1.081000000     0.494000000
H     1.333000000     1.841000000     0.820000000
C     0.832000000    -0.253000000     0.848000000
H     1.632000000    -0.522000000     1.571000000
C     0.001000000    -1.246000000     0.414000000
H     0.048000000    -2.276000000     0.758000000
C    -0.986000000    -0.927000000    -0.575000000
H    -1.533000000    -1.752000000    -1.025000000
C    -1.154000000     0.382000000    -1.013000000
C    -2.112000000     0.650000000    -2.160000000
O    -2.300000000     1.817000000    -2.582000000
O    -2.431000000    -0.268000000    -2.859000000
O     3.594000000    -2.093000000    -0.402000000
H     3.587000000    -1.973000000    -1.351000000
H     2.865000000    -2.689000000    -0.231000000
O     1.927000000     3.419000000     4.209000000
H     0.991000000     3.218000000     4.194000000
H     2.106000000     3.790000000     3.345000000
O    -0.917000000    -5.975000000     0.321000000
H    -0.406000000    -6.740000000     0.585000000
H    -1.352000000    -6.245000000    -0.488000000
O    -4.301000000     3.479000000    -2.272000000
H    -3.453000000     3.037000000    -2.295000000
H    -4.775000000     3.126000000    -3.025000000
O     2.767000000     3.549000000    -0.526000000
H     2.434000000     3.051000000    -1.273000000
H     3.718000000     3.532000000    -0.634000000
O     3.122000000    -0.853000000     3.571000000
H     2.876000000    -0.307000000     4.318000000
H     3.081000000    -1.749000000     3.905000000
O    -1.531000000    -2.105000000    -4.552000000
H    -1.823000000    -1.427000000    -3.943000000
H    -2.102000000    -2.004000000    -5.314000000
O    -5.285000000     1.451000000    -0.306000000
H    -4.821000000     1.997000000    -0.942000000
H    -6.159000000     1.837000000    -0.251000000
O     0.948000000    -0.888000000    -5.307000000
H     0.040000000    -0.687000000    -5.082000000
H     1.091000000    -0.446000000    -6.143000000
O    -1.387000000    -2.996000000     4.591000000
H    -2.121000000    -2.382000000     4.580000000
H    -1.336000000    -3.291000000     5.501000000
O    -0.856000000     3.846000000    -3.329000000
H    -1.093000000     4.459000000    -2.633000000
H    -1.386000000     3.069000000    -3.153000000
O    -6.462000000    -1.685000000    -0.531000000
H    -6.856000000    -1.230000000    -1.276000000
H    -5.560000000    -1.366000000    -0.505000000
O    -2.268000000     1.588000000    -5.368000000
H    -1.723000000     2.375000000    -5.373000000
H    -2.418000000     1.406000000    -4.440000000
O    -3.412000000     0.074000000     1.647000000
H    -3.085000000    -0.826000000     1.651000000
H    -4.041000000     0.098000000     0.926000000
O    -7.082000000    -0.768000000    -2.983000000
H    -6.185000000    -0.545000000    -3.229000000
H    -7.368000000    -1.388000000    -3.655000000
O    -2.988000000    -2.481000000     1.881000000
H    -3.533000000    -3.073000000     1.364000000
H    -2.260000000    -3.026000000     2.182000000
O     7.239000000    -0.495000000     3.769000000
H     6.597000000    -0.711000000     3.093000000
H     7.960000000    -0.083000000     3.293000000
O     1.012000000     5.691000000    -1.762000000
H     1.935000000     5.551000000    -1.551000000
H     0.717000000     4.852000000    -2.117000000
O    -2.096000000     4.321000000    -0.433000000
H    -2.529000000     4.896000000     0.198000000
H    -1.607000000     3.700000000     0.106000000
O    -4.179000000     2.052000000    -7.189000000
H    -3.543000000     2.100000000    -6.475000000
H    -4.574000000     2.924000000    -7.218000000
O    -2.446000000     5.613000000     2.121000000
H    -3.032000000     5.522000000     2.872000000
H    -1.901000000     4.826000000     2.147000000
O     7.020000000    -2.066000000    -0.175000000
H     7.082000000    -2.999000000     0.032000000
H     6.412000000    -1.717000000     0.477000000
O     6.506000000     1.239000000    -1.032000000
H     6.515000000     0.872000000    -1.916000000
H     6.381000000     2.179000000    -1.163000000
O     2.214000000     0.292000000    -1.798000000
H     1.564000000     0.316000000    -1.097000000
H     1.963000000     1.007000000    -2.382000000
O     4.539000000    -0.260000000    -3.125000000
H     4.795000000     0.482000000    -3.671000000
H     3.814000000     0.071000000    -2.594000000
O    -4.788000000     0.363000000    -3.688000000
H    -4.000000000     0.049000000    -3.245000000
H    -4.483000000     0.637000000    -4.553000000
O     5.523000000     1.822000000     1.221000000
H     4.946000000     1.211000000     1.680000000
H     5.778000000     1.358000000     0.424000000
O     1.469000000    -4.499000000     0.074000000
H     1.468000000    -4.356000000     1.020000000
H     0.580000000    -4.794000000    -0.125000000
O    -4.232000000     2.375000000     2.987000000
H    -3.501000000     2.030000000     2.474000000
H    -4.931000000     1.731000000     2.870000000
O    -3.465000000    -3.133000000    -2.236000000
H    -2.674000000    -3.313000000    -2.744000000
H    -3.442000000    -2.188000000    -2.084000000
O    -5.005000000    -5.499000000    -2.834000000
H    -4.576000000    -6.026000000    -3.508000000
H    -4.665000000    -4.614000000    -2.970000000
O     4.985000000    -0.833000000     1.674000000
H     4.369000000    -0.575000000     2.361000000
H     4.454000000    -1.328000000     1.050000000
O     1.631000000    -2.938000000     5.335000000
H     2.077000000    -3.385000000     4.617000000
H     0.741000000    -2.793000000     5.012000000
O    -2.526000000    -1.788000000    -6.957000000
H    -2.465000000    -0.923000000    -7.364000000
H    -3.390000000    -2.112000000    -7.211000000
O     6.104000000     1.436000000     5.607000000
H     5.147000000     1.443000000     5.585000000
H     6.356000000     0.860000000     4.885000000
O    -4.484000000     5.803000000    -0.602000000
H    -4.818000000     5.500000000     0.242000000
H    -4.395000000     5.007000000    -1.125000000
O     1.850000000     2.568000000    -3.090000000
H     0.927000000     2.816000000    -3.042000000
H     2.242000000     3.216000000    -3.676000000
O    -4.290000000    -4.505000000     0.178000000
H    -4.151000000    -4.223000000    -0.726000000
H    -3.971000000    -5.408000000     0.199000000
O     3.059000000    -6.474000000    -0.845000000
H     2.612000000    -5.631000000    -0.762000000
H     2.580000000    -7.057000000    -0.256000000
O    -0.228000000     4.057000000    -6.332000000
H    -0.446000000     4.073000000    -7.264000000
H    -0.709000000     4.797000000    -5.961000000
O     1.148000000     4.381000000     1.626000000
H     2.005000000     4.114000000     1.294000000
H     0.819000000     4.997000000     0.971000000
O    -0.727000000     2.477000000     4.933000000
H    -0.926000000     1.547000000     4.821000000
H    -0.539000000     2.571000000     5.866000000
O    -1.092000000     3.143000000     2.341000000
H    -1.107000000     2.614000000     3.139000000
H    -0.171000000     3.152000000     2.078000000
O     2.415000000    -4.497000000     2.934000000
H     3.232000000    -4.774000000     2.520000000
H     1.946000000    -5.313000000     3.108000000
O     0.177000000    -4.152000000    -4.374000000
H    -0.410000000    -3.408000000    -4.239000000
H     1.055000000    -3.770000000    -4.359000000
O     3.211000000     1.281000000     5.379000000
H     2.962000000     1.461000000     6.286000000
H     2.808000000     1.988000000     4.875000000
O    -0.486000000    -0.307000000     3.484000000
H    -0.183000000    -0.401000000     2.580000000
H    -1.417000000    -0.528000000     3.448000000
O    -0.195000000    -0.335000000     6.439000000
H    -0.032000000    -0.675000000     5.559000000
H    -1.122000000    -0.097000000     6.435000000
