158
-3055.19675
C    -0.099000000     1.336000000     0.721000000
H     0.011000000     2.322000000     1.165000000
C     0.345000000     0.162000000     1.317000000
H     0.788000000     0.084000000     2.307000000
C     0.400000000    -1.021000000     0.579000000
H     0.711000000    -1.975000000     1.016000000
C    -0.046000000    -1.032000000    -0.762000000
H    -0.195000000    -1.959000000    -1.310000000
C    -0.447000000     0.181000000    -1.429000000
H    -0.846000000     0.184000000    -2.440000000
C    -0.469000000     1.341000000    -0.659000000
C    -0.960000000     2.619000000    -1.290000000
O    -1.136000000     3.580000000    -0.511000000
O    -1.190000000     2.760000000    -2.494000000
O     0.776000000    -4.881000000     1.775000000
H     0.659000000    -3.935000000     1.862000000
H    -0.049000000    -5.191000000     1.402000000
O    -1.497000000    -5.305000000     0.225000000
H    -1.515000000    -5.714000000    -0.641000000
H    -2.412000000    -5.089000000     0.406000000
O     3.451000000    -0.281000000     5.752000000
H     2.657000000    -0.650000000     6.138000000
H     3.644000000     0.488000000     6.289000000
O     0.694000000     1.659000000    -4.165000000
H     0.016000000     1.958000000    -3.559000000
H     1.042000000     2.463000000    -4.551000000
O    -3.155000000     3.121000000     1.103000000
H    -2.382000000     3.336000000     0.580000000
H    -2.829000000     2.530000000     1.781000000
O    -0.354000000     5.181000000    -3.283000000
H    -0.649000000     5.156000000    -4.193000000
H    -0.481000000     4.287000000    -2.966000000
O    -3.231000000    -4.607000000     3.737000000
H    -3.114000000    -4.058000000     2.962000000
H    -4.142000000    -4.896000000     3.691000000
O     1.738000000    -2.791000000    -4.384000000
H     1.908000000    -1.857000000    -4.510000000
H     0.799000000    -2.887000000    -4.539000000
O    -2.595000000    -0.428000000     1.495000000
H    -1.639000000    -0.423000000     1.544000000
H    -2.835000000     0.492000000     1.390000000
O    -5.176000000     4.105000000    -5.154000000
H    -4.589000000     4.860000000    -5.118000000
H    -5.203000000     3.779000000    -4.255000000
O     3.653000000    -6.586000000    -1.069000000
H     3.751000000    -7.515000000    -1.278000000
H     2.921000000    -6.295000000    -1.613000000
O    -5.996000000     2.824000000     1.087000000
H    -5.053000000     2.987000000     1.100000000
H    -6.384000000     3.681000000     0.915000000
O    -0.298000000    -0.366000000    -6.265000000
H    -0.513000000     0.314000000    -6.903000000
H    -0.075000000     0.115000000    -5.468000000
O     0.176000000     3.182000000     4.480000000
H     0.993000000     2.870000000     4.089000000
H     0.139000000     4.110000000     4.247000000
O    -3.638000000     6.750000000     1.337000000
H    -3.933000000     6.281000000     2.118000000
H    -4.419000000     7.203000000     1.019000000
O    -2.151000000     1.795000000     3.281000000
H    -2.481000000     1.036000000     3.762000000
H    -1.207000000     1.788000000     3.441000000
O     3.673000000     0.336000000     3.134000000
H     3.480000000     0.157000000     4.054000000
H     3.169000000    -0.320000000     2.651000000
O     1.818000000    -2.551000000     4.303000000
H     1.877000000    -2.220000000     5.199000000
H     1.028000000    -3.091000000     4.299000000
O    -0.747000000     6.161000000    -0.859000000
H    -0.594000000     5.985000000    -1.787000000
H    -0.840000000     5.294000000    -0.463000000
O    -3.469000000     4.639000000    -2.446000000
H    -2.773000000     4.207000000    -1.951000000
H    -4.253000000     4.123000000    -2.257000000
O     1.638000000     4.121000000    -5.654000000
H     0.715000000     4.373000000    -5.670000000
H     2.106000000     4.935000000    -5.465000000
O    -1.619000000    -5.948000000    -2.715000000
H    -1.601000000    -6.141000000    -3.653000000
H    -1.264000000    -6.734000000    -2.301000000
O     2.906000000    -6.274000000     3.492000000
H     3.346000000    -6.988000000     3.032000000
H     2.289000000    -5.920000000     2.851000000
O    -5.586000000     2.939000000    -2.558000000
H    -6.360000000     3.496000000    -2.637000000
H    -5.936000000     2.061000000    -2.410000000
O    -1.288000000     4.808000000    -5.830000000
H    -2.200000000     5.082000000    -5.726000000
H    -1.084000000     4.998000000    -6.746000000
O     2.307000000     4.445000000    -0.700000000
H     2.877000000     4.041000000    -1.355000000
H     1.420000000     4.257000000    -1.006000000
O     2.429000000    -0.136000000    -3.609000000
H     1.750000000     0.492000000    -3.855000000
H     2.530000000    -0.023000000    -2.664000000
O    -3.396000000    -1.526000000    -4.178000000
H    -3.191000000    -0.629000000    -3.914000000
H    -4.187000000    -1.746000000    -3.687000000
O     5.830000000    -3.274000000     4.408000000
H     5.359000000    -3.394000000     3.583000000
H     6.675000000    -2.906000000     4.149000000
O     1.095000000    -4.307000000    -2.040000000
H     1.159000000    -3.566000000    -2.643000000
H     0.299000000    -4.766000000    -2.308000000
O    -3.171000000     1.317000000    -3.555000000
H    -2.391000000     1.747000000    -3.203000000
H    -3.833000000     2.008000000    -3.583000000
O     3.752000000    -3.785000000     2.620000000
H     3.478000000    -4.660000000     2.896000000
H     3.119000000    -3.196000000     3.030000000
O    -0.854000000     7.089000000     1.601000000
H    -0.515000000     6.711000000     0.790000000
H    -1.749000000     6.757000000     1.665000000
O     4.271000000    -1.330000000     0.893000000
H     3.999000000    -2.195000000     0.587000000
H     5.155000000    -1.464000000     1.236000000
O    -0.677000000    -0.420000000     4.592000000
H    -0.698000000    -1.374000000     4.508000000
H     0.173000000    -0.233000000     4.990000000
O     4.393000000    -2.440000000    -2.388000000
H     4.117000000    -2.905000000    -1.598000000
H     3.576000000    -2.231000000    -2.841000000
O    -2.996000000     7.276000000    -2.510000000
H    -2.354000000     7.278000000    -1.800000000
H    -3.539000000     6.506000000    -2.339000000
O    -4.114000000    -1.283000000    -0.945000000
H    -3.547000000    -0.732000000    -0.406000000
H    -4.668000000    -0.663000000    -1.420000000
O     2.857000000     0.349000000    -0.881000000
H     1.941000000     0.072000000    -0.862000000
H     3.258000000    -0.098000000    -0.136000000
O     3.416000000    -3.663000000    -0.274000000
H     3.659000000    -4.293000000     0.403000000
H     2.594000000    -3.999000000    -0.631000000
O     2.732000000     3.090000000     3.590000000
H     3.184000000     2.462000000     3.026000000
H     3.405000000     3.390000000     4.202000000
O     2.405000000     5.686000000     1.955000000
H     2.098000000     5.136000000     1.235000000
H     3.280000000     5.352000000     2.155000000
O    -3.785000000     4.897000000     3.161000000
H    -4.212000000     4.218000000     3.683000000
H    -3.402000000     4.425000000     2.422000000
O    -0.781000000    -3.624000000     4.867000000
H    -1.721000000    -3.793000000     4.801000000
H    -0.492000000    -4.167000000     5.600000000
O    -1.231000000    -3.202000000    -4.121000000
H    -1.519000000    -3.533000000    -3.271000000
H    -1.763000000    -2.419000000    -4.266000000
O     2.692000000     2.419000000     6.583000000
H     2.151000000     3.180000000     6.795000000
H     2.408000000     2.159000000     5.707000000
O    -3.556000000    -3.083000000     1.587000000
H    -3.241000000    -2.212000000     1.347000000
H    -3.848000000    -3.469000000     0.761000000
O     0.352000000     5.776000000     3.741000000
H    -0.383000000     6.213000000     3.313000000
H     1.103000000     5.963000000     3.178000000
