158
-3033.78768
C    -0.496000000     0.920000000    -1.029000000
H    -0.762000000     1.705000000    -1.732000000
C    -0.776000000     0.967000000     0.276000000
H    -1.362000000     1.798000000     0.658000000
C    -0.309000000     0.052000000     1.192000000
H    -0.525000000     0.188000000     2.211000000
C     0.458000000    -0.974000000     0.766000000
H     0.795000000    -1.756000000     1.442000000
C     0.860000000    -1.025000000    -0.597000000
H     1.628000000    -1.772000000    -0.782000000
C     0.388000000    -0.109000000    -1.535000000
C     0.857000000    -0.139000000    -3.002000000
O     0.422000000     0.672000000    -3.817000000
O     1.576000000    -1.049000000    -3.340000000
O     4.502000000    -3.401000000     2.220000000
H     4.297000000    -2.631000000     1.689000000
H     5.005000000    -3.056000000     2.958000000
O    -0.657000000     3.744000000     6.093000000
H    -1.059000000     3.308000000     6.844000000
H     0.285000000     3.661000000     6.244000000
O    -3.618000000    -1.910000000     1.992000000
H    -3.439000000    -1.990000000     1.055000000
H    -4.557000000    -1.727000000     2.041000000
O    -2.161000000    -1.727000000    -3.356000000
H    -2.206000000    -1.105000000    -4.083000000
H    -1.363000000    -2.230000000    -3.520000000
O     2.555000000     4.902000000    -0.081000000
H     1.964000000     5.174000000     0.621000000
H     2.682000000     3.964000000     0.064000000
O     2.911000000     0.530000000     2.623000000
H     3.243000000     1.063000000     3.345000000
H     2.208000000     0.011000000     3.012000000
O     0.536000000    -1.397000000    -5.925000000
H     0.891000000    -1.313000000    -5.040000000
H     0.406000000    -0.495000000    -6.218000000
O     4.063000000    -0.492000000    -4.107000000
H     3.128000000    -0.473000000    -3.904000000
H     4.117000000    -0.955000000    -4.943000000
O    -0.410000000     3.271000000    -3.484000000
H    -1.210000000     3.251000000    -2.960000000
H    -0.088000000     2.370000000    -3.464000000
O     3.502000000     3.487000000    -5.118000000
H     3.481000000     4.097000000    -4.380000000
H     3.470000000     4.048000000    -5.893000000
O    -3.651000000     3.575000000     0.193000000
H    -4.450000000     4.045000000     0.432000000
H    -3.800000000     2.679000000     0.496000000
O     0.678000000    -5.561000000    -1.521000000
H     0.713000000    -6.156000000    -2.270000000
H     0.298000000    -4.756000000    -1.872000000
O     1.733000000     1.718000000    -6.219000000
H     1.416000000     1.285000000    -5.426000000
H     2.332000000     2.393000000    -5.900000000
O    -1.572000000     0.808000000     4.826000000
H    -1.646000000    -0.142000000     4.918000000
H    -0.714000000     1.017000000     5.195000000
O     1.999000000     2.560000000     5.062000000
H     1.193000000     2.667000000     4.557000000
H     2.591000000     3.228000000     4.714000000
O    -2.410000000     5.895000000     1.139000000
H    -1.459000000     5.924000000     1.039000000
H    -2.662000000     5.040000000     0.791000000
O    -3.212000000     1.634000000     3.046000000
H    -3.600000000     1.007000000     2.435000000
H    -2.653000000     1.102000000     3.612000000
O     0.661000000     4.946000000    -5.832000000
H     0.341000000     4.137000000    -6.232000000
H     0.708000000     4.748000000    -4.897000000
O    -0.814000000     3.016000000    -7.411000000
H    -1.371000000     2.539000000    -8.027000000
H    -0.099000000     2.410000000    -7.216000000
O     4.999000000    -2.174000000    -2.099000000
H     4.260000000    -2.702000000    -1.796000000
H     4.643000000    -1.659000000    -2.823000000
O     0.099000000    -5.003000000    -5.192000000
H     0.382000000    -5.172000000    -6.090000000
H    -0.841000000    -4.837000000    -5.264000000
O    -2.858000000    -3.792000000     3.515000000
H    -3.242000000    -3.058000000     3.036000000
H    -2.827000000    -4.504000000     2.877000000
O    -0.774000000     5.483000000    -1.519000000
H    -0.265000000     4.813000000    -1.976000000
H    -1.564000000     5.587000000    -2.050000000
O     0.479000000    -0.750000000     7.109000000
H     0.487000000    -1.611000000     7.526000000
H    -0.420000000    -0.440000000     7.215000000
O     4.866000000    -2.578000000    -5.739000000
H     5.791000000    -2.516000000    -5.501000000
H     4.660000000    -3.510000000    -5.659000000
O     2.993000000    -4.172000000    -1.389000000
H     3.559000000    -4.725000000    -0.850000000
H     2.191000000    -4.684000000    -1.498000000
O    -3.181000000     2.661000000    -2.253000000
H    -3.140000000     2.911000000    -1.330000000
H    -3.945000000     2.088000000    -2.313000000
O     3.391000000     2.413000000     0.496000000
H     3.574000000     1.836000000    -0.246000000
H     3.097000000     1.825000000     1.191000000
O     2.239000000    -3.149000000    -7.216000000
H     2.760000000    -2.367000000    -7.399000000
H     1.518000000    -2.834000000    -6.672000000
O    -4.806000000     1.082000000     0.708000000
H    -4.851000000     0.402000000     0.036000000
H    -5.679000000     1.090000000     1.100000000
O    -1.966000000     6.068000000     3.915000000
H    -2.174000000     5.136000000     3.968000000
H    -2.186000000     6.312000000     3.016000000
O    -3.956000000     0.027000000    -6.673000000
H    -3.552000000    -0.191000000    -7.513000000
H    -3.217000000     0.153000000    -6.078000000
O     4.065000000    -4.861000000    -3.974000000
H     3.275000000    -4.520000000    -3.555000000
H     4.264000000    -5.664000000    -3.494000000
O    -2.307000000    -1.710000000    -0.501000000
H    -1.559000000    -1.261000000    -0.106000000
H    -2.207000000    -1.559000000    -1.441000000
O    -0.058000000    -3.209000000    -3.060000000
H     0.165000000    -3.803000000    -3.776000000
H     0.669000000    -2.588000000    -3.028000000
O    -3.135000000     5.378000000    -3.083000000
H    -2.934000000     4.446000000    -2.999000000
H    -4.024000000     5.400000000    -3.437000000
O     4.234000000    -1.024000000     0.657000000
H     3.541000000    -0.600000000     1.163000000
H     3.968000000    -0.909000000    -0.256000000
O     1.570000000    -4.513000000     3.135000000
H     2.216000000    -3.853000000     2.886000000
H     0.877000000    -4.429000000     2.479000000
O     0.035000000     3.213000000     3.289000000
H    -0.499000000     3.154000000     4.081000000
H    -0.445000000     2.700000000     2.638000000
O    -1.810000000     0.423000000    -4.959000000
H    -2.426000000     0.894000000    -4.397000000
H    -0.949000000     0.627000000    -4.594000000
O     4.273000000     0.759000000    -1.726000000
H     5.190000000     0.954000000    -1.533000000
H     4.273000000     0.493000000    -2.645000000
O     3.176000000    -0.778000000     5.982000000
H     3.862000000    -1.079000000     6.578000000
H     2.417000000    -0.630000000     6.546000000
O     1.418000000    -1.036000000     4.001000000
H     2.128000000    -0.911000000     4.631000000
H     0.740000000    -1.499000000     4.493000000
O     0.679000000     5.433000000     1.905000000
H     0.571000000     4.507000000     2.123000000
H     0.927000000     5.846000000     2.732000000
O    -5.475000000     3.422000000     4.033000000
H    -5.028000000     3.146000000     3.233000000
H    -5.812000000     2.611000000     4.413000000
O    -0.518000000    -3.974000000     1.467000000
H    -0.995000000    -4.610000000     0.934000000
H    -0.922000000    -3.133000000     1.255000000
O    -1.641000000    -1.946000000     5.070000000
H    -2.190000000    -1.979000000     5.853000000
H    -2.066000000    -2.543000000     4.454000000
O     2.168000000     1.702000000     7.771000000
H     2.123000000     1.886000000     6.833000000
H     1.727000000     0.859000000     7.871000000
