158
-3006.13425
C     0.206000000     0.838000000    -1.176000000
H     0.409000000     1.585000000    -1.938000000
C     0.618000000     1.176000000     0.132000000
H     1.203000000     2.073000000     0.320000000
C     0.263000000     0.292000000     1.111000000
H     0.466000000     0.632000000     2.091000000
C    -0.362000000    -0.917000000     0.893000000
H    -0.523000000    -1.611000000     1.714000000
C    -0.706000000    -1.177000000    -0.407000000
H    -1.174000000    -2.153000000    -0.507000000
C    -0.454000000    -0.334000000    -1.470000000
C    -0.910000000    -0.618000000    -2.883000000
O    -0.977000000     0.255000000    -3.707000000
O    -0.752000000    -1.708000000    -3.329000000
O     3.075000000    -4.738000000     0.847000000
H     2.858000000    -3.970000000     0.319000000
H     3.883000000    -4.497000000     1.300000000
O    -4.393000000    -1.484000000     0.781000000
H    -4.673000000    -1.933000000    -0.017000000
H    -4.316000000    -2.181000000     1.432000000
O     2.694000000    -1.772000000     2.461000000
H     2.499000000    -0.879000000     2.744000000
H     2.475000000    -1.781000000     1.529000000
O    -1.026000000     0.431000000    -6.592000000
H    -1.101000000     0.283000000    -5.649000000
H    -1.658000000     1.126000000    -6.776000000
O     0.677000000    -1.696000000    -5.479000000
H     0.011000000    -1.782000000    -4.797000000
H     0.293000000    -1.091000000    -6.114000000
O    -1.629000000    -4.576000000     2.267000000
H    -1.325000000    -4.295000000     1.404000000
H    -2.273000000    -3.916000000     2.521000000
O    -3.032000000     1.909000000    -3.915000000
H    -3.697000000     1.402000000    -3.449000000
H    -2.239000000     1.377000000    -3.856000000
O    -4.336000000    -5.134000000    -3.268000000
H    -4.763000000    -5.735000000    -3.879000000
H    -3.637000000    -4.727000000    -3.781000000
O     0.559000000    -4.817000000    -5.882000000
H     1.052000000    -4.121000000    -5.448000000
H     0.002000000    -5.181000000    -5.194000000
O     0.780000000     2.326000000    -4.207000000
H     0.504000000     1.410000000    -4.222000000
H     0.689000000     2.618000000    -5.114000000
O    -3.609000000    -0.673000000     5.719000000
H    -4.298000000    -1.227000000     5.352000000
H    -2.807000000    -0.974000000     5.291000000
O     3.093000000     1.189000000     3.377000000
H     3.401000000     1.332000000     4.272000000
H     2.755000000     2.041000000     3.102000000
O    -1.838000000     3.336000000     2.358000000
H    -1.546000000     2.887000000     1.564000000
H    -1.763000000     4.267000000     2.147000000
O    -4.603000000    -4.172000000     2.032000000
H    -5.230000000    -4.711000000     2.514000000
H    -4.082000000    -4.800000000     1.530000000
O    -4.023000000     2.346000000     3.277000000
H    -3.671000000     1.837000000     2.547000000
H    -3.432000000     3.095000000     3.353000000
O     0.979000000     3.563000000     7.749000000
H     1.025000000     3.112000000     6.906000000
H     1.699000000     3.192000000     8.258000000
O    -2.902000000     0.571000000     1.361000000
H    -3.457000000    -0.182000000     1.156000000
H    -2.011000000     0.267000000     1.183000000
O     3.801000000     2.859000000    -0.495000000
H     3.506000000     3.678000000    -0.892000000
H     4.321000000     3.133000000     0.262000000
O    -2.451000000     4.672000000    -5.299000000
H    -2.720000000     3.802000000    -5.005000000
H    -1.724000000     4.508000000    -5.901000000
O     2.360000000    -5.823000000    -2.608000000
H     1.702000000    -5.129000000    -2.654000000
H     3.183000000    -5.362000000    -2.447000000
O    -2.906000000     3.676000000    -1.156000000
H    -2.853000000     3.204000000    -1.987000000
H    -2.009000000     3.966000000    -0.988000000
O    -0.555000000     0.176000000     6.812000000
H    -0.924000000    -0.663000000     6.538000000
H    -0.668000000     0.748000000     6.053000000
O    -0.254000000     5.032000000    -0.584000000
H     0.641000000     4.783000000    -0.355000000
H    -0.564000000     5.533000000     0.170000000
O     1.214000000     3.305000000     4.958000000
H     0.659000000     2.603000000     4.619000000
H     1.416000000     3.843000000     4.192000000
O     4.763000000     0.635000000     1.232000000
H     4.435000000     0.858000000     2.103000000
H     4.294000000     1.224000000     0.641000000
O     0.913000000    -3.619000000    -2.406000000
H     0.081000000    -3.189000000    -2.604000000
H     1.564000000    -2.921000000    -2.473000000
O     3.033000000     0.313000000    -5.545000000
H     2.590000000     0.106000000    -6.368000000
H     2.824000000     1.233000000    -5.385000000
O     1.067000000     5.155000000    -3.182000000
H     0.932000000     4.315000000    -3.621000000
H     0.599000000     5.070000000    -2.352000000
O     3.485000000     1.028000000    -2.745000000
H     3.160000000     1.564000000    -2.021000000
H     4.110000000     1.594000000    -3.199000000
O    -3.857000000    -0.960000000    -7.314000000
H    -3.785000000    -0.425000000    -8.104000000
H    -3.067000000    -0.755000000    -6.813000000
O    -4.488000000     0.389000000    -1.997000000
H    -5.366000000     0.355000000    -2.378000000
H    -4.398000000    -0.441000000    -1.529000000
O    -0.664000000    -6.430000000    -3.727000000
H    -1.384000000    -5.799000000    -3.709000000
H    -0.772000000    -6.938000000    -2.923000000
O    -4.954000000    -2.841000000    -1.593000000
H    -4.577000000    -3.579000000    -2.072000000
H    -5.725000000    -2.592000000    -2.103000000
O    -2.103000000    -3.795000000    -4.209000000
H    -1.737000000    -4.041000000    -5.058000000
H    -1.717000000    -2.940000000    -4.020000000
O     2.926000000    -2.054000000    -0.262000000
H     3.641000000    -2.363000000    -0.818000000
H     2.460000000    -1.416000000    -0.802000000
O     1.766000000    -4.346000000     6.441000000
H     1.590000000    -4.039000000     5.551000000
H     0.958000000    -4.164000000     6.921000000
O     1.262000000    -3.711000000     3.910000000
H     1.550000000    -3.166000000     3.177000000
H     1.059000000    -4.558000000     3.514000000
O    -1.347000000     1.993000000     4.693000000
H    -1.477000000     2.462000000     3.869000000
H    -2.218000000     1.960000000     5.090000000
O     0.368000000    -1.017000000    -8.586000000
H    -0.117000000    -0.460000000    -7.978000000
H    -0.179000000    -1.046000000    -9.372000000
O     2.401000000    -1.547000000    -3.368000000
H     1.850000000    -1.854000000    -4.089000000
H     2.519000000    -0.612000000    -3.538000000
O     3.700000000     1.532000000     5.979000000
H     3.262000000     1.931000000     6.731000000
H     3.917000000     0.646000000     6.270000000
O    -3.452000000    -5.944000000    -0.176000000
H    -2.822000000    -5.612000000    -0.816000000
H    -4.306000000    -5.794000000    -0.582000000
O     3.209000000     5.570000000    -1.000000000
H     4.111000000     5.808000000    -0.785000000
H     3.063000000     5.944000000    -1.869000000
O    -1.393000000    -1.912000000     4.823000000
H    -1.686000000    -2.822000000     4.802000000
H    -0.451000000    -1.960000000     4.661000000
O     2.468000000     4.349000000     2.662000000
H     2.287000000     5.267000000     2.868000000
H     3.332000000     4.362000000     2.250000000
O     4.952000000    -1.639000000     3.940000000
H     4.628000000    -1.558000000     4.838000000
H     4.171000000    -1.547000000     3.395000000
O    -0.681000000    -5.110000000    -0.368000000
H     0.035000000    -5.702000000    -0.137000000
H    -0.290000000    -4.489000000    -0.982000000
O     0.198000000    -6.392000000     3.067000000
H     0.525000000    -6.884000000     2.315000000
H    -0.569000000    -5.925000000     2.734000000
