158
-3053.56326
C    -0.292000000     0.911000000    -1.118000000
H    -0.405000000     1.735000000    -1.817000000
C     0.526000000     1.187000000    -0.017000000
H     1.058000000     2.132000000     0.054000000
C     0.742000000     0.235000000     0.955000000
H     1.319000000     0.448000000     1.901000000
C     0.081000000    -0.983000000     0.872000000
H     0.328000000    -1.672000000     1.676000000
C    -0.699000000    -1.242000000    -0.236000000
H    -1.259000000    -2.173000000    -0.256000000
C    -0.943000000    -0.297000000    -1.210000000
C    -1.905000000    -0.564000000    -2.394000000
O    -2.266000000     0.376000000    -3.132000000
O    -2.368000000    -1.681000000    -2.637000000
O     4.993000000    -4.398000000     1.781000000
H     4.522000000    -5.197000000     2.015000000
H     4.305000000    -3.769000000     1.562000000
O     4.754000000     4.246000000    -0.763000000
H     5.381000000     4.183000000    -0.043000000
H     4.109000000     4.887000000    -0.464000000
O     4.147000000     1.731000000     0.891000000
H     4.378000000     2.437000000     1.494000000
H     3.870000000     2.180000000     0.092000000
O    -0.754000000     1.250000000    -5.408000000
H    -1.197000000     0.751000000    -4.722000000
H    -1.121000000     0.912000000    -6.225000000
O    -3.812000000    -1.149000000    -4.970000000
H    -3.175000000    -0.830000000    -4.330000000
H    -4.000000000    -2.046000000    -4.694000000
O    -2.650000000    -3.736000000     4.462000000
H    -2.438000000    -2.817000000     4.624000000
H    -1.926000000    -4.222000000     4.856000000
O     3.328000000     2.423000000     7.163000000
H     2.970000000     1.938000000     6.420000000
H     2.558000000     2.768000000     7.617000000
O    -4.994000000    -1.869000000     2.075000000
H    -5.078000000    -1.097000000     1.516000000
H    -4.127000000    -2.220000000     1.871000000
O     0.819000000     6.263000000    -2.833000000
H     1.569000000     6.857000000    -2.859000000
H     1.044000000     5.564000000    -3.447000000
O    -2.046000000    -5.434000000    -3.868000000
H    -1.848000000    -6.345000000    -4.086000000
H    -2.508000000    -5.099000000    -4.636000000
O    -3.808000000     4.360000000    -4.282000000
H    -4.074000000     3.443000000    -4.352000000
H    -2.854000000     4.340000000    -4.363000000
O    -1.833000000     2.271000000     5.718000000
H    -1.315000000     1.467000000     5.745000000
H    -2.721000000     1.992000000     5.943000000
O    -3.507000000     2.481000000     2.207000000
H    -3.785000000     2.478000000     1.291000000
H    -3.158000000     1.602000000     2.354000000
O    -1.380000000    -1.431000000     4.723000000
H    -0.440000000    -1.529000000     4.572000000
H    -1.442000000    -0.992000000     5.571000000
O     6.460000000     0.295000000     3.069000000
H     6.144000000     0.599000000     3.920000000
H     5.741000000    -0.230000000     2.720000000
O     2.147000000    -1.496000000    -1.910000000
H     2.198000000    -0.951000000    -2.695000000
H     1.384000000    -1.164000000    -1.437000000
O    -2.375000000    -0.013000000     2.578000000
H    -2.021000000    -0.462000000     1.811000000
H    -2.245000000    -0.629000000     3.299000000
O     5.085000000    -2.732000000     4.584000000
H     5.604000000    -3.136000000     5.279000000
H     5.448000000    -3.091000000     3.775000000
O     1.576000000    -2.798000000    -5.003000000
H     0.788000000    -2.916000000    -4.471000000
H     2.265000000    -3.245000000    -4.511000000
O    -2.965000000     2.536000000    -7.120000000
H    -3.917000000     2.628000000    -7.152000000
H    -2.817000000     1.593000000    -7.050000000
O     6.511000000     0.386000000     0.345000000
H     6.905000000     0.469000000     1.213000000
H     5.624000000     0.729000000     0.451000000
O     1.222000000    -4.476000000    -0.823000000
H     0.746000000    -4.839000000    -1.570000000
H     1.656000000    -3.697000000    -1.171000000
O    -1.649000000     4.218000000    -1.211000000
H    -1.773000000     3.364000000    -1.626000000
H    -2.535000000     4.564000000    -1.106000000
O    -1.876000000     3.931000000     3.671000000
H    -1.826000000     3.503000000     4.525000000
H    -2.396000000     3.333000000     3.134000000
O     5.506000000     0.922000000     5.477000000
H     5.309000000     1.858000000     5.496000000
H     4.655000000     0.496000000     5.583000000
O    -0.299000000    -3.354000000    -3.070000000
H    -1.027000000    -2.751000000    -2.924000000
H    -0.717000000    -4.188000000    -3.284000000
O     2.040000000     2.040000000    -5.057000000
H     1.111000000     1.813000000    -5.018000000
H     2.053000000     2.997000000    -5.055000000
O    -4.410000000     1.623000000    -4.009000000
H    -3.693000000     1.176000000    -3.558000000
H    -4.458000000     1.195000000    -4.864000000
O    -6.770000000    -2.322000000    -1.100000000
H    -5.939000000    -2.799000000    -1.109000000
H    -6.640000000    -1.604000000    -1.720000000
O    -5.259000000    -3.921000000    -4.733000000
H    -6.048000000    -3.936000000    -5.275000000
H    -4.590000000    -4.342000000    -5.273000000
O    -3.055000000    -5.731000000    -1.209000000
H    -2.635000000    -5.787000000    -2.068000000
H    -3.709000000    -5.040000000    -1.308000000
O     4.637000000     4.035000000     3.251000000
H     5.048000000     3.805000000     4.084000000
H     5.337000000     4.450000000     2.746000000
O    -1.137000000     3.932000000    -4.902000000
H    -1.082000000     3.011000000    -4.646000000
H    -0.674000000     3.976000000    -5.738000000
O    -4.840000000     2.711000000    -0.257000000
H    -5.495000000     2.424000000    -0.894000000
H    -4.517000000     3.542000000    -0.605000000
O    -4.312000000    -3.435000000    -2.028000000
H    -4.674000000    -3.708000000    -2.871000000
H    -3.557000000    -2.893000000    -2.257000000
O     3.035000000    -2.501000000     0.620000000
H     3.330000000    -1.788000000     1.187000000
H     2.929000000    -2.095000000    -0.240000000
O    -6.191000000    -0.702000000    -3.125000000
H    -6.686000000    -0.458000000    -3.907000000
H    -5.280000000    -0.732000000    -3.417000000
O     3.709000000    -0.494000000     2.326000000
H     3.674000000     0.360000000     1.895000000
H     2.925000000    -0.517000000     2.876000000
O    -2.486000000    -0.349000000    -7.083000000
H    -3.023000000    -0.653000000    -6.351000000
H    -2.400000000    -1.114000000    -7.651000000
O     0.815000000    -4.137000000     2.341000000
H     1.352000000    -3.885000000     1.590000000
H     0.034000000    -4.532000000     1.954000000
O     1.288000000     2.340000000     4.926000000
H     1.133000000     2.914000000     4.176000000
H     0.803000000     2.749000000     5.644000000
O    -0.928000000    -5.375000000     0.489000000
H    -1.525000000    -5.972000000     0.037000000
H    -0.197000000    -5.262000000    -0.119000000
O     0.804000000     5.354000000    -0.056000000
H    -0.098000000     5.071000000    -0.203000000
H     1.139000000     5.550000000    -0.931000000
O     1.575000000    -2.324000000     4.220000000
H     1.332000000    -2.715000000     3.380000000
H     1.754000000    -3.072000000     4.789000000
O     0.594000000     4.411000000     2.630000000
H    -0.324000000     4.365000000     2.898000000
H     0.566000000     4.383000000     1.674000000
O     2.497000000     0.071000000     5.637000000
H     2.284000000    -0.684000000     5.089000000
H     1.894000000     0.755000000     5.347000000
O    -2.627000000    -3.218000000     1.699000000
H    -2.655000000    -3.587000000     2.582000000
H    -2.300000000    -3.931000000     1.151000000
O     2.886000000     6.033000000     3.193000000
H     1.993000000     5.700000000     3.105000000
H     3.413000000     5.257000000     3.384000000
