158
-3073.55211
C    -0.319000000     1.247000000    -0.713000000
H    -0.570000000     2.240000000    -1.077000000
C     0.072000000     1.167000000     0.621000000
H     0.150000000     2.053000000     1.246000000
C     0.341000000    -0.040000000     1.192000000
H     0.746000000    -0.187000000     2.219000000
C     0.201000000    -1.171000000     0.404000000
H     0.473000000    -2.156000000     0.774000000
C    -0.195000000    -1.128000000    -0.906000000
H    -0.433000000    -1.997000000    -1.513000000
C    -0.407000000     0.135000000    -1.539000000
C    -0.753000000     0.223000000    -2.976000000
O    -1.348000000     1.167000000    -3.510000000
O    -0.489000000    -0.684000000    -3.719000000
O     4.024000000    -4.187000000     1.814000000
H     4.074000000    -3.324000000     1.401000000
H     4.782000000    -4.217000000     2.397000000
O    -5.298000000    -2.138000000    -2.925000000
H    -4.651000000    -1.468000000    -3.143000000
H    -6.035000000    -1.650000000    -2.558000000
O     1.881000000     5.146000000    -1.278000000
H     2.065000000     5.031000000    -0.345000000
H     2.713000000     4.953000000    -1.711000000
O     3.418000000    -0.812000000     3.021000000
H     3.111000000     0.091000000     2.944000000
H     3.239000000    -1.200000000     2.164000000
O    -1.569000000    -0.822000000    -5.957000000
H    -1.270000000    -0.590000000    -5.078000000
H    -1.711000000     0.020000000    -6.391000000
O     1.904000000    -1.628000000    -4.373000000
H     1.091000000    -1.198000000    -4.105000000
H     1.776000000    -1.823000000    -5.302000000
O    -2.107000000     4.532000000    -3.514000000
H    -1.712000000     4.814000000    -4.339000000
H    -1.655000000     3.717000000    -3.298000000
O    -4.156000000     4.397000000     0.672000000
H    -4.892000000     4.241000000     1.264000000
H    -3.834000000     3.522000000     0.455000000
O    -1.879000000    -4.291000000    -1.724000000
H    -1.612000000    -4.132000000    -2.629000000
H    -1.056000000    -4.356000000    -1.239000000
O    -0.110000000     3.123000000    -5.132000000
H    -0.343000000     2.277000000    -4.750000000
H    -0.435000000     3.076000000    -6.032000000
O    -0.770000000    -0.802000000     7.380000000
H    -0.164000000    -1.350000000     6.881000000
H    -1.597000000    -1.284000000     7.366000000
O    -1.406000000     0.290000000     4.714000000
H    -1.084000000     0.216000000     5.613000000
H    -0.892000000    -0.350000000     4.222000000
O     2.242000000     2.193000000     3.572000000
H     1.355000000     2.477000000     3.791000000
H     2.481000000     2.720000000     2.809000000
O    -1.896000000     4.576000000     2.263000000
H    -1.426000000     4.521000000     1.431000000
H    -2.816000000     4.453000000     2.027000000
O    -4.859000000     2.809000000    -3.993000000
H    -4.014000000     3.256000000    -3.938000000
H    -5.415000000     3.270000000    -3.365000000
O    -3.792000000    -6.251000000    -1.498000000
H    -3.127000000    -5.574000000    -1.624000000
H    -4.587000000    -5.767000000    -1.275000000
O    -4.456000000     1.899000000     4.781000000
H    -3.511000000     1.882000000     4.935000000
H    -4.610000000     1.189000000     4.157000000
O    -3.171000000    -0.058000000     0.583000000
H    -3.222000000    -0.950000000     0.238000000
H    -2.295000000     0.001000000     0.965000000
O    -0.484000000     4.348000000    -0.114000000
H     0.422000000     4.449000000    -0.406000000
H    -0.989000000     4.905000000    -0.706000000
O     2.510000000     2.179000000     6.361000000
H     2.965000000     1.357000000     6.547000000
H     2.196000000     2.081000000     5.462000000
O     2.894000000    -6.318000000     0.333000000
H     3.687000000    -6.731000000    -0.009000000
H     3.209000000    -5.542000000     0.796000000
O     0.462000000     5.336000000     5.523000000
H     0.281000000     4.694000000     4.837000000
H     1.066000000     4.888000000     6.116000000
O     5.265000000     2.111000000    -0.354000000
H     4.316000000     2.234000000    -0.388000000
H     5.383000000     1.161000000    -0.344000000
O     1.765000000    -4.606000000    -3.315000000
H     1.474000000    -5.287000000    -3.921000000
H     1.597000000    -3.785000000    -3.779000000
O    -4.007000000     4.076000000    -6.859000000
H    -3.305000000     4.180000000    -6.217000000
H    -4.803000000     3.991000000    -6.334000000
O     2.603000000     2.249000000    -0.633000000
H     1.726000000     1.893000000    -0.776000000
H     2.477000000     2.946000000     0.011000000
O    -0.123000000    -2.679000000    -7.352000000
H    -0.221000000    -2.511000000    -8.289000000
H    -0.564000000    -1.941000000    -6.930000000
O    -3.960000000     2.023000000    -1.069000000
H    -4.331000000     1.642000000    -1.865000000
H    -3.689000000     1.268000000    -0.547000000
O    -3.990000000    -3.325000000    -5.106000000
H    -4.347000000    -2.682000000    -5.719000000
H    -4.299000000    -3.035000000    -4.248000000
O    -3.983000000    -1.396000000    -6.984000000
H    -3.033000000    -1.361000000    -6.876000000
H    -4.295000000    -0.560000000    -6.637000000
O     1.058000000     5.485000000    -4.910000000
H     0.535000000     4.683000000    -4.880000000
H     1.727000000     5.360000000    -4.237000000
O    -3.660000000    -2.548000000    -0.126000000
H    -2.925000000    -3.151000000    -0.233000000
H    -4.230000000    -2.729000000    -0.874000000
O    -0.863000000    -3.413000000    -4.256000000
H    -1.372000000    -3.576000000    -5.050000000
H    -0.929000000    -2.468000000    -4.119000000
O    -2.369000000     6.247000000    -1.391000000
H    -2.270000000     5.716000000    -2.181000000
H    -3.121000000     5.865000000    -0.938000000
O     4.022000000    -1.758000000     0.086000000
H     4.889000000    -1.365000000     0.189000000
H     3.616000000    -1.260000000    -0.623000000
O    -1.378000000     1.770000000    -7.113000000
H    -1.970000000     2.061000000    -7.807000000
H    -0.624000000     1.408000000    -7.578000000
O     2.031000000    -3.746000000     3.628000000
H     2.681000000    -3.912000000     2.946000000
H     1.268000000    -4.259000000     3.361000000
O     3.576000000    -0.606000000     6.099000000
H     4.520000000    -0.759000000     6.147000000
H     3.185000000    -1.450000000     6.325000000
O    -0.409000000     3.107000000     4.088000000
H    -0.779000000     2.331000000     4.510000000
H    -1.035000000     3.325000000     3.397000000
O    -3.985000000     0.228000000    -3.778000000
H    -4.471000000     1.040000000    -3.919000000
H    -3.067000000     0.499000000    -3.756000000
O     3.183000000    -0.019000000    -2.017000000
H     3.460000000     0.891000000    -2.128000000
H     2.639000000    -0.199000000    -2.783000000
O     5.170000000     1.905000000     4.821000000
H     5.101000000     2.530000000     5.542000000
H     4.290000000     1.536000000     4.738000000
O     0.915000000    -1.538000000     5.225000000
H     1.833000000    -1.267000000     5.187000000
H     0.893000000    -2.377000000     4.767000000
O     2.737000000     4.396000000     1.331000000
H     2.222000000     5.035000000     1.824000000
H     3.642000000     4.561000000     1.596000000
O     5.933000000    -1.119000000     3.769000000
H     6.222000000    -0.236000000     3.999000000
H     4.988000000    -1.036000000     3.644000000
O     0.847000000    -4.871000000    -0.832000000
H     1.594000000    -5.433000000    -0.626000000
H     1.063000000    -4.489000000    -1.683000000
O     0.206000000    -5.542000000     2.308000000
H     0.526000000    -5.390000000     1.419000000
H    -0.741000000    -5.641000000     2.208000000
O    -1.018000000    -4.055000000     6.308000000
H    -1.608000000    -3.486000000     6.802000000
H    -1.553000000    -4.390000000     5.589000000
