158
-3037.65938
C     1.124000000     0.523000000    -0.898000000
H     2.061000000     0.781000000    -1.384000000
C     0.625000000     1.204000000     0.251000000
H     1.075000000     2.123000000     0.617000000
C    -0.490000000     0.622000000     0.939000000
H    -0.781000000     1.076000000     1.852000000
C    -1.018000000    -0.608000000     0.553000000
H    -1.865000000    -0.956000000     1.139000000
C    -0.465000000    -1.218000000    -0.542000000
H    -0.817000000    -2.214000000    -0.798000000
C     0.526000000    -0.670000000    -1.339000000
C     1.077000000    -1.359000000    -2.528000000
O     1.869000000    -0.795000000    -3.253000000
O     0.484000000    -2.349000000    -2.968000000
O     3.948000000    -2.423000000    -0.148000000
H     3.244000000    -2.986000000    -0.472000000
H     4.383000000    -2.947000000     0.524000000
O    -4.865000000    -3.051000000     3.105000000
H    -5.093000000    -2.318000000     2.533000000
H    -4.018000000    -3.355000000     2.779000000
O    -4.916000000    -1.289000000     0.815000000
H    -5.062000000    -0.730000000     0.052000000
H    -4.754000000    -2.158000000     0.447000000
O    -3.694000000     4.228000000     5.196000000
H    -4.575000000     4.080000000     4.851000000
H    -3.748000000     3.963000000     6.114000000
O     4.440000000    -1.299000000    -2.895000000
H     3.659000000    -0.832000000    -3.193000000
H     4.164000000    -1.736000000    -2.089000000
O    -3.454000000    -3.314000000    -5.430000000
H    -2.745000000    -2.672000000    -5.458000000
H    -3.907000000    -3.135000000    -4.606000000
O    -4.633000000    -2.113000000     5.587000000
H    -4.637000000    -1.167000000     5.443000000
H    -4.815000000    -2.487000000     4.724000000
O     4.134000000     1.770000000    -4.983000000
H     4.697000000     0.996000000    -4.974000000
H     3.708000000     1.766000000    -4.126000000
O    -2.708000000    -5.236000000    -0.851000000
H    -2.315000000    -5.265000000     0.021000000
H    -1.963000000    -5.176000000    -1.449000000
O     1.539000000     3.664000000    -3.387000000
H     2.254000000     3.221000000    -2.930000000
H     1.098000000     2.968000000    -3.873000000
O    -1.160000000     3.333000000     4.491000000
H    -1.922000000     3.885000000     4.669000000
H    -0.665000000     3.815000000     3.829000000
O    -4.784000000     0.699000000     5.512000000
H    -4.291000000     1.342000000     5.003000000
H    -5.627000000     0.634000000     5.064000000
O    -2.132000000     0.082000000     3.960000000
H    -1.946000000    -0.782000000     4.328000000
H    -1.444000000     0.646000000     4.314000000
O     1.494000000    -1.574000000     1.810000000
H     1.401000000    -2.418000000     1.369000000
H     1.292000000    -0.927000000     1.135000000
O    -4.157000000     1.173000000     2.527000000
H    -4.349000000     0.433000000     1.951000000
H    -3.504000000     0.836000000     3.140000000
O    -0.337000000    -7.002000000    -1.552000000
H    -0.319000000    -6.105000000    -1.885000000
H     0.561000000    -7.169000000    -1.265000000
O     3.705000000     2.246000000    -2.355000000
H     3.797000000     1.659000000    -1.604000000
H     4.442000000     2.851000000    -2.278000000
O    -0.949000000    -1.484000000    -5.086000000
H    -0.398000000    -1.807000000    -4.373000000
H    -0.887000000    -0.531000000    -5.023000000
O    -4.107000000     2.934000000    -1.365000000
H    -3.613000000     3.484000000    -0.757000000
H    -3.489000000     2.252000000    -1.628000000
O    -0.102000000    -1.983000000    -7.988000000
H    -0.382000000    -1.968000000    -7.073000000
H     0.854000000    -1.969000000    -7.947000000
O    -1.877000000     5.439000000     0.817000000
H    -1.243000000     5.268000000     0.120000000
H    -1.344000000     5.548000000     1.604000000
O     5.258000000    -2.479000000    -6.569000000
H     5.508000000    -3.201000000    -5.994000000
H     4.731000000    -1.903000000    -6.015000000
O     1.967000000    -4.435000000    -5.038000000
H     1.418000000    -3.927000000    -4.441000000
H     2.263000000    -5.180000000    -4.515000000
O     6.982000000    -0.256000000    -2.358000000
H     6.055000000    -0.488000000    -2.293000000
H     7.161000000    -0.249000000    -3.298000000
O    -1.679000000     2.507000000    -4.495000000
H    -1.295000000     2.379000000    -3.628000000
H    -0.969000000     2.300000000    -5.103000000
O     4.704000000     0.408000000    -0.235000000
H     4.385000000    -0.409000000     0.150000000
H     5.657000000     0.339000000    -0.188000000
O    -5.002000000    -4.002000000    -0.021000000
H    -5.538000000    -4.790000000    -0.108000000
H    -4.192000000    -4.211000000    -0.488000000
O     1.755000000    -3.817000000    -0.756000000
H     1.588000000    -4.756000000    -0.841000000
H     1.087000000    -3.405000000    -1.304000000
O     4.298000000     2.158000000     2.313000000
H     4.674000000     2.085000000     1.435000000
H     4.710000000     1.452000000     2.810000000
O     0.942000000     1.347000000    -4.799000000
H     1.268000000     0.617000000    -4.273000000
H     1.541000000     1.393000000    -5.544000000
O    -1.851000000     1.401000000    -1.756000000
H    -1.096000000     1.829000000    -1.353000000
H    -1.841000000     0.513000000    -1.398000000
O    -0.994000000    -4.550000000    -2.571000000
H    -1.698000000    -4.634000000    -3.214000000
H    -0.706000000    -3.640000000    -2.648000000
O     3.204000000    -2.319000000     4.211000000
H     3.093000000    -2.218000000     3.265000000
H     2.485000000    -1.815000000     4.592000000
O    -4.044000000     0.380000000    -3.816000000
H    -4.708000000     0.926000000    -4.236000000
H    -3.284000000     0.954000000    -3.724000000
O    -0.585000000    -5.704000000    -5.799000000
H     0.224000000    -5.199000000    -5.713000000
H    -0.488000000    -6.422000000    -5.174000000
O     1.559000000    -0.962000000     5.907000000
H     2.290000000    -1.062000000     6.516000000
H     1.652000000    -0.072000000     5.566000000
O    -0.771000000     1.494000000     6.685000000
H    -0.954000000     2.171000000     6.033000000
H    -1.629000000     1.122000000     6.891000000
O    -4.905000000    -3.102000000    -2.889000000
H    -5.624000000    -2.579000000    -3.243000000
H    -5.132000000    -3.230000000    -1.968000000
O     2.712000000    -1.152000000    -5.708000000
H     2.399000000    -1.257000000    -4.810000000
H     2.672000000    -2.033000000    -6.080000000
O    -0.115000000    -2.597000000     4.066000000
H     0.402000000    -2.219000000     4.778000000
H     0.407000000    -2.437000000     3.280000000
O     2.097000000     3.566000000     2.998000000
H     2.487000000     4.437000000     2.925000000
H     2.693000000     2.995000000     2.513000000
O    -0.648000000    -5.469000000     1.097000000
H    -1.160000000    -6.227000000     1.381000000
H    -0.065000000    -5.815000000     0.422000000
O     4.941000000     4.244000000    -1.407000000
H     4.524000000     5.074000000    -1.637000000
H     5.516000000     4.459000000    -0.673000000
O     0.364000000     5.875000000     2.400000000
H     0.821000000     6.400000000     3.057000000
H     0.771000000     5.011000000     2.459000000
O     1.809000000     1.333000000     4.770000000
H     2.652000000     1.657000000     5.089000000
H     1.540000000     1.974000000     4.111000000
O    -5.277000000     3.567000000     2.576000000
H    -4.938000000     2.675000000     2.497000000
H    -4.637000000     4.108000000     2.113000000
O    -2.258000000    -3.864000000     2.633000000
H    -1.802000000    -4.663000000     2.370000000
H    -1.581000000    -3.327000000     3.045000000
O     0.446000000     5.056000000    -1.165000000
H     0.974000000     5.846000000    -1.051000000
H     0.842000000     4.609000000    -1.913000000
