158
-3047.84738
C     0.752000000     0.917000000    -0.915000000
H     1.224000000     1.732000000    -1.458000000
C     0.779000000     0.834000000     0.521000000
H     1.402000000     1.535000000     1.071000000
C    -0.001000000    -0.059000000     1.240000000
H     0.109000000    -0.107000000     2.275000000
C    -0.810000000    -0.964000000     0.578000000
H    -1.362000000    -1.724000000     1.126000000
C    -0.837000000    -0.951000000    -0.849000000
H    -1.483000000    -1.617000000    -1.416000000
C    -0.033000000    -0.029000000    -1.626000000
C    -0.118000000     0.110000000    -3.102000000
O     0.531000000     1.014000000    -3.609000000
O    -0.794000000    -0.612000000    -3.777000000
O    -3.833000000    -0.869000000     2.807000000
H    -3.515000000    -1.318000000     2.024000000
H    -4.331000000    -0.124000000     2.471000000
O    -4.053000000     1.580000000     5.971000000
H    -3.787000000     1.665000000     5.055000000
H    -4.179000000     2.480000000     6.268000000
O     4.655000000     3.428000000    -0.035000000
H     4.115000000     4.217000000     0.000000000
H     5.315000000     3.558000000     0.646000000
O     1.403000000     2.920000000    -8.375000000
H     1.179000000     2.455000000    -7.569000000
H     0.749000000     2.628000000    -9.010000000
O     2.696000000     0.561000000     3.266000000
H     2.769000000     1.516000000     3.245000000
H     2.055000000     0.385000000     3.954000000
O     1.608000000     1.782000000    -5.810000000
H     1.266000000     1.485000000    -4.966000000
H     1.987000000     2.641000000    -5.625000000
O    -1.297000000    -0.496000000    -6.259000000
H    -1.019000000    -0.351000000    -5.355000000
H    -1.331000000    -1.449000000    -6.350000000
O    -1.289000000    -2.731000000     3.696000000
H    -0.936000000    -2.024000000     3.156000000
H    -0.593000000    -3.388000000     3.714000000
O    -1.911000000     1.129000000     7.950000000
H    -2.092000000     0.206000000     8.125000000
H    -2.394000000     1.319000000     7.146000000
O     2.974000000     4.410000000    -2.689000000
H     2.848000000     5.228000000    -2.208000000
H     3.509000000     4.655000000    -3.444000000
O    -4.623000000     1.821000000     3.078000000
H    -5.299000000     2.295000000     2.592000000
H    -3.813000000     2.289000000     2.878000000
O    -5.614000000    -3.436000000     1.534000000
H    -5.683000000    -2.528000000     1.240000000
H    -4.673000000    -3.599000000     1.590000000
O     0.348000000    -4.860000000    -3.152000000
H    -0.511000000    -4.686000000    -2.768000000
H     0.715000000    -3.992000000    -3.320000000
O     0.086000000     5.896000000    -4.353000000
H    -0.061000000     5.052000000    -3.925000000
H     0.220000000     5.676000000    -5.275000000
O    -2.403000000    -3.508000000     6.621000000
H    -2.141000000    -3.217000000     5.747000000
H    -3.249000000    -3.936000000     6.487000000
O     0.434000000     3.778000000     5.189000000
H    -0.308000000     3.240000000     4.911000000
H     0.348000000     3.831000000     6.141000000
O    -2.187000000     3.110000000     3.166000000
H    -1.778000000     3.055000000     2.302000000
H    -2.723000000     3.902000000     3.127000000
O    -1.843000000     0.484000000     4.253000000
H    -2.465000000    -0.049000000     3.758000000
H    -1.889000000     1.348000000     3.843000000
O     4.249000000     0.288000000    -0.300000000
H     4.055000000     1.127000000     0.117000000
H     5.101000000     0.418000000    -0.716000000
O    -1.364000000     3.017000000     0.777000000
H    -2.275000000     2.726000000     0.835000000
H    -0.868000000     2.216000000     0.608000000
O    -2.544000000     3.156000000    -5.864000000
H    -2.803000000     2.294000000    -6.189000000
H    -2.064000000     3.551000000    -6.592000000
O     5.712000000     2.349000000    -2.578000000
H     5.401000000     2.899000000    -1.858000000
H     4.959000000     1.802000000    -2.803000000
O     3.279000000    -1.532000000    -2.390000000
H     3.853000000    -2.271000000    -2.187000000
H     3.467000000    -0.888000000    -1.708000000
O     5.300000000    -1.545000000     2.973000000
H     4.520000000    -1.069000000     3.258000000
H     6.007000000    -1.192000000     3.513000000
O     1.413000000    -4.338000000     0.441000000
H     1.733000000    -3.482000000     0.724000000
H     1.974000000    -4.571000000    -0.299000000
O    -1.068000000     4.791000000    -1.353000000
H    -1.089000000     4.082000000    -1.996000000
H    -1.321000000     4.376000000    -0.529000000
O     4.539000000    -0.320000000    -4.453000000
H     4.068000000     0.506000000    -4.341000000
H     4.182000000    -0.893000000    -3.774000000
O     1.202000000    -2.430000000    -3.913000000
H     0.496000000    -1.791000000    -4.009000000
H     1.875000000    -1.970000000    -3.411000000
O     3.109000000     1.704000000    -3.029000000
H     2.188000000     1.450000000    -3.074000000
H     3.091000000     2.622000000    -2.758000000
O    -0.927000000     3.318000000    -3.477000000
H    -0.355000000     2.555000000    -3.389000000
H    -1.566000000     3.063000000    -4.142000000
O    -5.703000000    -1.974000000    -2.103000000
H    -5.000000000    -2.236000000    -2.697000000
H    -6.050000000    -2.798000000    -1.764000000
O    -4.111000000    -4.650000000    -1.471000000
H    -4.441000000    -4.378000000    -2.327000000
H    -3.216000000    -4.310000000    -1.441000000
O    -3.363000000     0.889000000     0.245000000
H    -3.025000000     0.647000000    -0.617000000
H    -4.260000000     1.179000000     0.077000000
O    -3.322000000    -2.242000000    -3.486000000
H    -3.547000000    -2.313000000    -4.414000000
H    -2.419000000    -1.923000000    -3.483000000
O     2.246000000    -1.858000000     0.483000000
H     2.901000000    -1.185000000     0.297000000
H     1.409000000    -1.395000000     0.447000000
O    -3.903000000     1.076000000    -3.901000000
H    -4.599000000     0.496000000    -4.209000000
H    -3.105000000     0.724000000    -4.295000000
O     2.372000000    -2.274000000     3.096000000
H     2.578000000    -2.295000000     2.162000000
H     2.508000000    -1.362000000     3.352000000
O     0.802000000     1.150000000     7.470000000
H     1.078000000     1.439000000     8.340000000
H    -0.152000000     1.091000000     7.530000000
O     0.755000000     0.119000000    -7.823000000
H    -0.175000000     0.225000000    -7.623000000
H     1.207000000     0.561000000    -7.104000000
O     1.732000000     3.279000000     2.573000000
H     1.620000000     3.745000000     1.745000000
H     1.608000000     3.951000000     3.244000000
O    -1.205000000    -4.503000000    -0.427000000
H    -1.094000000    -5.440000000    -0.584000000
H    -0.392000000    -4.233000000    -0.001000000
O     1.597000000     4.887000000    -0.469000000
H     0.686000000     5.001000000    -0.740000000
H     1.862000000     4.055000000    -0.860000000
O     0.936000000    -0.072000000     4.995000000
H     0.062000000    -0.077000000     4.604000000
H     0.808000000     0.307000000     5.864000000
O     1.329000000     6.369000000     1.736000000
H     1.833000000     7.107000000     1.393000000
H     1.519000000     5.649000000     1.135000000
O     2.996000000     2.476000000     5.976000000
H     2.364000000     1.768000000     5.849000000
H     2.555000000     3.254000000     5.635000000
O    -4.731000000    -2.041000000     5.012000000
H    -4.332000000    -1.651000000     4.235000000
H    -5.507000000    -1.506000000     5.178000000
O    -3.005000000    -3.655000000     1.731000000
H    -2.351000000    -3.467000000     2.403000000
H    -2.536000000    -4.175000000     1.078000000
O     1.044000000    -4.357000000     4.148000000
H     1.479000000    -3.630000000     3.701000000
H     1.586000000    -4.521000000     4.920000000
