158
-3040.50104
C     0.764000000    -0.805000000    -0.934000000
H     1.408000000    -1.411000000    -1.565000000
C     0.127000000    -1.311000000     0.176000000
H     0.281000000    -2.344000000     0.476000000
C    -0.615000000    -0.429000000     0.976000000
H    -1.118000000    -0.853000000     1.920000000
C    -0.722000000     0.892000000     0.636000000
H    -1.420000000     1.491000000     1.215000000
C     0.076000000     1.398000000    -0.393000000
H     0.227000000     2.467000000    -0.522000000
C     0.748000000     0.531000000    -1.298000000
C     1.477000000     1.123000000    -2.477000000
O     1.607000000     2.308000000    -2.494000000
O     2.203000000     0.502000000    -3.201000000
O    -0.456000000    -5.407000000     2.367000000
H     0.304000000    -4.876000000     2.605000000
H    -0.397000000    -5.498000000     1.416000000
O    -2.951000000    -4.977000000     3.845000000
H    -2.735000000    -4.045000000     3.798000000
H    -2.245000000    -5.410000000     3.365000000
O    -2.184000000     1.966000000     5.138000000
H    -1.540000000     1.352000000     4.786000000
H    -2.210000000     1.774000000     6.075000000
O     5.642000000    -2.212000000    -4.799000000
H     6.415000000    -2.629000000    -5.179000000
H     5.087000000    -2.007000000    -5.551000000
O    -1.066000000    -4.158000000    -1.554000000
H    -1.982000000    -3.893000000    -1.468000000
H    -0.594000000    -3.340000000    -1.708000000
O     5.464000000    -0.102000000    -0.365000000
H     6.122000000     0.089000000    -1.032000000
H     4.760000000     0.523000000    -0.537000000
O     1.220000000    -1.837000000    -4.460000000
H     1.691000000    -1.081000000    -4.109000000
H     0.340000000    -1.763000000    -4.090000000
O     4.100000000     2.179000000    -1.379000000
H     3.254000000     2.235000000    -1.824000000
H     4.545000000     2.995000000    -1.609000000
O     0.731000000     6.101000000    -1.989000000
H     0.829000000     5.947000000    -1.049000000
H     0.458000000     5.254000000    -2.342000000
O    -1.247000000    -1.746000000    -3.449000000
H    -1.330000000    -1.056000000    -2.791000000
H    -2.084000000    -2.209000000    -3.419000000
O     0.021000000     0.392000000     4.358000000
H     0.485000000    -0.364000000     4.717000000
H    -0.113000000     0.174000000     3.436000000
O    -5.265000000     1.324000000     5.786000000
H    -4.655000000     0.632000000     6.039000000
H    -5.513000000     1.109000000     4.887000000
O    -3.155000000     1.165000000    -2.014000000
H    -3.299000000     0.541000000    -1.303000000
H    -2.863000000     1.964000000    -1.575000000
O     0.064000000    -5.700000000    -4.038000000
H    -0.294000000    -5.140000000    -3.348000000
H    -0.449000000    -5.480000000    -4.815000000
O    -2.325000000     2.132000000    -4.622000000
H    -2.479000000     1.463000000    -5.289000000
H    -2.963000000     1.937000000    -3.935000000
O     2.709000000     4.416000000    -4.081000000
H     1.958000000     4.845000000    -4.491000000
H     2.323000000     3.749000000    -3.513000000
O    -5.365000000     3.377000000    -0.732000000
H    -4.501000000     3.668000000    -1.022000000
H    -5.801000000     4.177000000    -0.438000000
O     0.972000000    -2.243000000     4.534000000
H     1.189000000    -2.686000000     5.354000000
H     1.475000000    -2.713000000     3.868000000
O    -0.496000000     2.526000000    -6.348000000
H    -1.052000000     2.138000000    -5.672000000
H     0.341000000     2.069000000    -6.261000000
O     1.408000000     2.650000000     4.864000000
H     0.823000000     1.894000000     4.827000000
H     1.459000000     2.868000000     5.795000000
O     1.535000000     1.048000000    -5.688000000
H     1.159000000     0.197000000    -5.910000000
H     1.798000000     0.962000000    -4.772000000
O     2.017000000    -3.851000000     2.514000000
H     2.477000000    -4.416000000     3.135000000
H     2.435000000    -4.031000000     1.672000000
O     0.012000000    -6.318000000    -0.274000000
H     0.369000000    -6.876000000    -0.965000000
H    -0.296000000    -5.536000000    -0.732000000
O    -4.408000000    -0.572000000    -0.333000000
H    -5.300000000    -0.274000000    -0.157000000
H    -3.937000000    -0.414000000     0.485000000
O    -3.855000000    -1.598000000     2.310000000
H    -3.137000000    -1.948000000     2.838000000
H    -4.236000000    -2.366000000     1.885000000
O    -0.641000000     3.719000000    -3.079000000
H     0.192000000     3.248000000    -3.031000000
H    -1.199000000     3.162000000    -3.623000000
O     2.589000000    -5.261000000     0.281000000
H     3.246000000    -5.611000000    -0.321000000
H     1.751000000    -5.455000000    -0.138000000
O     3.105000000     0.933000000     2.384000000
H     2.622000000     0.747000000     1.579000000
H     3.548000000     1.764000000     2.210000000
O     5.083000000    -2.874000000    -0.348000000
H     5.158000000    -1.924000000    -0.255000000
H     4.395000000    -2.997000000    -1.002000000
O    -3.530000000    -0.540000000     6.881000000
H    -3.530000000    -1.478000000     7.071000000
H    -3.058000000    -0.146000000     7.614000000
O    -3.563000000    -3.062000000    -1.815000000
H    -4.144000000    -3.783000000    -2.057000000
H    -4.076000000    -2.536000000    -1.201000000
O     0.560000000     4.861000000    -5.530000000
H     0.260000000     3.955000000    -5.603000000
H    -0.221000000     5.386000000    -5.707000000
O     1.651000000     4.265000000     2.528000000
H     2.520000000     3.958000000     2.268000000
H     1.296000000     3.553000000     3.061000000
O     2.262000000    -2.791000000    -6.872000000
H     1.743000000    -2.450000000    -7.600000000
H     1.787000000    -2.512000000    -6.089000000
O     3.825000000    -1.704000000    -2.670000000
H     4.365000000    -1.640000000    -3.458000000
H     3.158000000    -1.026000000    -2.781000000
O     3.156000000     1.059000000    -7.851000000
H     2.556000000     1.186000000    -7.117000000
H     2.603000000     1.138000000    -8.629000000
O     4.727000000     0.905000000    -4.401000000
H     4.691000000     1.818000000    -4.117000000
H     3.881000000     0.540000000    -4.141000000
O    -3.031000000     4.524000000     4.465000000
H    -2.702000000     3.650000000     4.675000000
H    -3.574000000     4.395000000     3.688000000
O     1.715000000     6.090000000     0.477000000
H     1.630000000     5.533000000     1.251000000
H     2.628000000     6.376000000     0.487000000
O    -1.706000000    -2.518000000     4.340000000
H    -0.753000000    -2.452000000     4.410000000
H    -2.034000000    -1.769000000     4.836000000
O     5.719000000     3.950000000    -4.167000000
H     4.948000000     4.233000000    -3.675000000
H     5.449000000     3.996000000    -5.084000000
O    -4.548000000     4.295000000     2.236000000
H    -4.215000000     3.745000000     1.528000000
H    -4.595000000     5.173000000     1.856000000
O    -1.476000000     4.542000000     0.959000000
H    -1.704000000     5.470000000     0.898000000
H    -0.673000000     4.526000000     1.479000000
O     2.700000000    -4.132000000    -3.386000000
H     3.111000000    -3.299000000    -3.155000000
H     2.043000000    -3.901000000    -4.042000000
O    -2.657000000     3.757000000    -1.379000000
H    -2.144000000     3.996000000    -2.151000000
H    -2.042000000     3.834000000    -0.649000000
O     4.116000000     3.278000000     1.282000000
H     4.007000000     3.164000000     0.338000000
H     4.717000000     4.019000000     1.366000000
O    -5.773000000    -1.183000000     4.265000000
H    -5.227000000    -1.330000000     3.492000000
H    -6.570000000    -0.780000000     3.923000000
O    -5.235000000    -3.886000000     1.154000000
H    -5.542000000    -4.234000000     1.991000000
H    -4.806000000    -4.629000000     0.728000000
