158
-3060.84989
C     1.378000000     0.384000000    -0.351000000
H     2.340000000     0.793000000    -0.650000000
C     0.404000000     1.202000000     0.073000000
H     0.579000000     2.273000000     0.126000000
C    -0.835000000     0.742000000     0.493000000
H    -1.564000000     1.475000000     0.885000000
C    -1.162000000    -0.589000000     0.286000000
H    -2.163000000    -0.940000000     0.525000000
C    -0.213000000    -1.474000000    -0.267000000
H    -0.451000000    -2.495000000    -0.556000000
C     1.088000000    -0.952000000    -0.463000000
C     2.120000000    -1.825000000    -1.176000000
O     3.205000000    -1.847000000    -0.652000000
O     1.780000000    -2.586000000    -2.076000000
O    -0.798000000    -2.431000000     3.170000000
H    -1.027000000    -3.247000000     2.724000000
H    -0.525000000    -2.705000000     4.046000000
O    -2.961000000    -4.927000000     2.026000000
H    -2.009000000    -4.860000000     2.101000000
H    -3.105000000    -5.722000000     1.512000000
O     3.554000000    -7.249000000    -2.406000000
H     4.375000000    -7.730000000    -2.515000000
H     3.780000000    -6.341000000    -2.607000000
O     4.935000000    -2.448000000    -2.482000000
H     4.452000000    -3.269000000    -2.574000000
H     4.508000000    -1.999000000    -1.753000000
O    -2.395000000     4.610000000     2.702000000
H    -2.129000000     3.695000000     2.791000000
H    -1.780000000     4.977000000     2.067000000
O    -0.451000000     0.223000000    -4.959000000
H     0.220000000     0.840000000    -4.670000000
H    -1.279000000     0.643000000    -4.726000000
O     4.133000000    -0.655000000    -4.471000000
H     3.936000000    -0.055000000    -3.751000000
H     4.735000000    -1.295000000    -4.092000000
O    -0.309000000    -5.023000000     2.083000000
H    -0.082000000    -5.952000000     2.129000000
H     0.085000000    -4.720000000     1.265000000
O     3.311000000     3.650000000     1.396000000
H     2.499000000     3.877000000     0.944000000
H     3.273000000     4.142000000     2.217000000
O    -4.853000000    -1.132000000     4.365000000
H    -4.609000000    -1.860000000     4.936000000
H    -5.747000000    -1.335000000     4.087000000
O     1.985000000     6.034000000     0.111000000
H     2.264000000     5.990000000    -0.804000000
H     2.382000000     6.839000000     0.444000000
O     5.067000000     2.339000000    -0.266000000
H     5.997000000     2.515000000    -0.120000000
H     4.616000000     2.893000000     0.371000000
O     1.717000000     3.543000000     4.995000000
H     1.855000000     3.901000000     5.872000000
H     1.292000000     4.252000000     4.511000000
O    -5.660000000    -0.057000000    -2.198000000
H    -6.390000000     0.453000000    -1.847000000
H    -5.992000000    -0.954000000    -2.237000000
O    -3.112000000     1.523000000     6.254000000
H    -2.261000000     1.868000000     5.984000000
H    -3.617000000     1.468000000     5.443000000
O     2.105000000     0.710000000     5.126000000
H     1.596000000     0.359000000     4.396000000
H     2.183000000     1.645000000     4.936000000
O     5.728000000    -3.300000000     3.113000000
H     5.558000000    -4.207000000     2.859000000
H     4.963000000    -2.817000000     2.799000000
O     0.895000000    -0.247000000     2.808000000
H     0.389000000    -1.001000000     3.113000000
H     0.666000000    -0.164000000     1.882000000
O     5.831000000    -5.301000000    -4.362000000
H     5.566000000    -5.951000000    -5.013000000
H     5.080000000    -4.711000000    -4.294000000
O    -1.083000000     3.158000000    -3.846000000
H    -1.380000000     3.214000000    -4.755000000
H    -0.237000000     2.713000000    -3.898000000
O     4.759000000    -0.327000000     0.946000000
H     4.173000000    -0.981000000     0.563000000
H     4.395000000     0.513000000     0.668000000
O     1.351000000    -3.760000000    -6.755000000
H     2.237000000    -3.410000000    -6.852000000
H     0.924000000    -3.163000000    -6.141000000
O    -1.349000000     2.190000000     3.439000000
H    -0.395000000     2.218000000     3.368000000
H    -1.585000000     1.311000000     3.142000000
O     7.363000000    -0.698000000     0.401000000
H     6.467000000    -0.703000000     0.739000000
H     7.586000000    -1.623000000     0.302000000
O     5.640000000    -5.381000000    -1.771000000
H     6.433000000    -5.885000000    -1.590000000
H     5.553000000    -5.405000000    -2.723000000
O    -0.804000000     5.113000000     0.396000000
H     0.148000000     5.214000000     0.385000000
H    -1.140000000     6.002000000     0.279000000
O     1.425000000     1.971000000    -4.222000000
H     2.167000000     1.875000000    -3.624000000
H     1.826000000     2.081000000    -5.084000000
O    -2.125000000     0.640000000    -2.804000000
H    -1.656000000     1.472000000    -2.738000000
H    -2.462000000     0.484000000    -1.921000000
O     3.644000000    -2.445000000    -6.860000000
H     3.357000000    -1.792000000    -6.221000000
H     4.591000000    -2.502000000    -6.735000000
O    -2.902000000     2.998000000    -0.631000000
H    -2.102000000     3.482000000    -0.426000000
H    -3.000000000     2.381000000     0.094000000
O    -5.185000000    -3.988000000     0.290000000
H    -5.705000000    -4.753000000     0.534000000
H    -4.435000000    -4.007000000     0.884000000
O     3.555000000     1.887000000    -2.683000000
H     3.671000000     2.777000000    -3.015000000
H     4.030000000     1.876000000    -1.852000000
O    -2.213000000     5.056000000    -2.485000000
H    -1.829000000     4.316000000    -2.956000000
H    -2.577000000     4.669000000    -1.688000000
O     0.826000000    -4.986000000    -0.889000000
H     1.653000000    -5.437000000    -0.723000000
H     1.068000000    -4.232000000    -1.428000000
O     0.539000000    -2.218000000    -4.454000000
H     0.095000000    -1.370000000    -4.478000000
H     0.982000000    -2.232000000    -3.605000000
O     3.644000000    -5.386000000     0.198000000
H     4.464000000    -5.159000000    -0.241000000
H     3.790000000    -6.268000000     0.539000000
O    -2.525000000    -0.224000000     3.013000000
H    -3.311000000    -0.601000000     3.409000000
H    -1.980000000    -0.980000000     2.796000000
O    -5.180000000     4.284000000     3.394000000
H    -4.323000000     4.227000000     2.970000000
H    -5.336000000     5.223000000     3.494000000
O    -0.853000000    -4.643000000    -4.107000000
H    -0.008000000    -4.933000000    -4.450000000
H    -0.820000000    -3.688000000    -4.165000000
O    -3.985000000     1.694000000     1.528000000
H    -3.542000000     0.913000000     1.858000000
H    -4.755000000     1.788000000     2.089000000
O     2.321000000    -3.351000000     1.472000000
H     2.566000000    -2.603000000     0.927000000
H     2.578000000    -4.116000000     0.957000000
O     7.495000000    -1.753000000    -2.236000000
H     7.337000000    -1.013000000    -1.650000000
H     6.649000000    -2.197000000    -2.294000000
O    -5.629000000     3.767000000     0.149000000
H    -5.820000000     2.917000000     0.545000000
H    -4.714000000     3.704000000    -0.125000000
O    -1.890000000    -5.799000000    -1.891000000
H    -1.074000000    -5.686000000    -1.403000000
H    -1.826000000    -5.173000000    -2.613000000
O    -6.692000000     2.254000000     2.221000000
H    -7.401000000     2.071000000     2.837000000
H    -6.235000000     3.006000000     2.598000000
O     3.351000000    -4.380000000    -3.635000000
H     2.766000000    -3.808000000    -3.137000000
H     2.766000000    -4.900000000    -4.185000000
O    -6.027000000    -2.708000000    -2.138000000
H    -5.786000000    -2.926000000    -1.238000000
H    -5.336000000    -3.099000000    -2.672000000
O    -3.840000000    -0.955000000    -4.088000000
H    -4.573000000    -0.531000000    -3.642000000
H    -3.081000000    -0.415000000    -3.868000000
