158
-3046.90779
C     0.249000000    -1.184000000    -0.762000000
H     0.650000000    -2.001000000    -1.355000000
C     0.909000000    -0.854000000     0.407000000
H     1.665000000    -1.528000000     0.801000000
C     0.584000000     0.351000000     1.003000000
H     1.143000000     0.786000000     1.868000000
C    -0.324000000     1.202000000     0.453000000
H    -0.564000000     2.123000000     0.979000000
C    -1.021000000     0.856000000    -0.705000000
H    -1.733000000     1.589000000    -1.075000000
C    -0.733000000    -0.357000000    -1.339000000
C    -1.468000000    -0.717000000    -2.618000000
O    -1.490000000    -1.885000000    -3.017000000
O    -2.046000000     0.096000000    -3.238000000
O     3.074000000     3.539000000     3.684000000
H     3.552000000     2.926000000     3.126000000
H     3.390000000     4.402000000     3.418000000
O    -5.087000000     0.727000000     0.556000000
H    -5.266000000     1.074000000    -0.319000000
H    -4.340000000     0.142000000     0.433000000
O     1.432000000     1.468000000    -3.610000000
H     1.649000000     2.142000000    -4.255000000
H     0.508000000     1.618000000    -3.409000000
O    -5.034000000    -3.281000000    -6.560000000
H    -4.835000000    -3.488000000    -7.473000000
H    -4.177000000    -3.164000000    -6.149000000
O     0.250000000     3.414000000     3.288000000
H    -0.080000000     2.517000000     3.333000000
H     1.202000000     3.318000000     3.254000000
O    -3.729000000     4.345000000     1.072000000
H    -2.856000000     4.729000000     1.149000000
H    -3.834000000     4.174000000     0.136000000
O    -4.001000000    -5.382000000    -2.804000000
H    -3.275000000    -5.188000000    -3.397000000
H    -3.697000000    -5.084000000    -1.947000000
O     0.699000000    -0.854000000    -5.164000000
H     1.334000000    -0.337000000    -4.669000000
H    -0.043000000    -0.958000000    -4.569000000
O    -1.179000000     2.251000000    -4.606000000
H    -0.768000000     1.746000000    -5.307000000
H    -1.738000000     1.620000000    -4.152000000
O    -1.169000000    -4.430000000    -6.456000000
H    -1.432000000    -5.337000000    -6.611000000
H    -1.431000000    -3.965000000    -7.250000000
O     1.292000000     6.485000000     2.741000000
H     0.956000000     5.749000000     2.230000000
H     2.233000000     6.323000000     2.804000000
O    -5.000000000    -1.885000000    -0.913000000
H    -5.019000000    -1.780000000    -1.864000000
H    -5.891000000    -1.677000000    -0.631000000
O     4.092000000    -0.999000000     1.990000000
H     4.630000000    -1.775000000     2.147000000
H     3.805000000    -1.086000000     1.081000000
O    -3.033000000     2.835000000    -6.716000000
H    -2.132000000     3.149000000    -6.646000000
H    -3.013000000     1.960000000    -6.330000000
O    -0.461000000    -4.214000000    -3.779000000
H    -0.557000000    -3.267000000    -3.875000000
H    -0.682000000    -4.566000000    -4.642000000
O    -3.015000000    -5.240000000     0.733000000
H    -2.389000000    -5.840000000     0.327000000
H    -3.021000000    -4.475000000     0.156000000
O     5.886000000    -0.971000000     4.609000000
H     6.011000000    -1.890000000     4.843000000
H     6.044000000    -0.940000000     3.665000000
O    -2.180000000    -0.728000000     1.973000000
H    -1.883000000     0.020000000     2.491000000
H    -1.508000000    -0.835000000     1.300000000
O     1.057000000     0.840000000     6.378000000
H     1.353000000     0.406000000     5.578000000
H     0.165000000     0.519000000     6.508000000
O    -4.457000000     1.060000000    -2.603000000
H    -4.782000000     0.299000000    -3.085000000
H    -3.505000000     0.967000000    -2.624000000
O    -0.617000000    -1.341000000     5.260000000
H    -1.458000000    -1.677000000     5.568000000
H    -0.081000000    -2.122000000     5.125000000
O    -2.820000000    -3.258000000    -1.006000000
H    -2.208000000    -2.807000000    -1.587000000
H    -3.610000000    -2.718000000    -1.023000000
O     2.457000000    -0.635000000     4.576000000
H     3.261000000    -0.435000000     5.056000000
H     2.711000000    -0.588000000     3.654000000
O    -1.866000000     5.155000000    -1.129000000
H    -1.326000000     4.926000000    -1.885000000
H    -2.698000000     4.709000000    -1.285000000
O     4.023000000    -1.642000000    -0.807000000
H     3.649000000    -1.546000000    -1.683000000
H     4.611000000    -2.394000000    -0.878000000
O     0.575000000    -2.118000000    -7.755000000
H    -0.326000000    -1.896000000    -7.990000000
H     0.606000000    -2.021000000    -6.804000000
O    -1.605000000     5.542000000     2.409000000
H    -1.336000000     5.418000000     3.319000000
H    -2.225000000     6.271000000     2.440000000
O    -4.149000000     3.699000000    -1.737000000
H    -4.315000000     2.841000000    -2.128000000
H    -4.859000000     4.252000000    -2.062000000
O     0.505000000     4.691000000     0.838000000
H     0.021000000     4.292000000     1.561000000
H    -0.170000000     4.938000000     0.206000000
O    -3.634000000     0.385000000    -5.610000000
H    -3.110000000    -0.035000000    -4.928000000
H    -4.535000000     0.134000000    -5.408000000
O     0.114000000     5.035000000     5.538000000
H     0.288000000     4.398000000     4.845000000
H    -0.541000000     4.612000000     6.093000000
O     4.474000000     1.508000000     2.617000000
H     5.136000000     1.817000000     1.998000000
H     4.205000000     0.656000000     2.274000000
O     4.167000000    -2.193000000    -3.452000000
H     4.672000000    -2.279000000    -4.260000000
H     3.689000000    -3.020000000    -3.380000000
O     2.055000000    -3.374000000     3.387000000
H     1.547000000    -2.563000000     3.400000000
H     2.320000000    -3.505000000     4.297000000
O    -4.861000000     2.498000000     2.900000000
H    -4.532000000     3.109000000     2.241000000
H    -5.052000000     1.698000000     2.410000000
O    -0.240000000    -4.090000000     4.401000000
H    -0.982000000    -4.675000000     4.247000000
H     0.452000000    -4.425000000     3.831000000
O     3.400000000     2.430000000    -1.665000000
H     3.946000000     2.141000000    -2.397000000
H     2.504000000     2.364000000    -1.995000000
O     5.503000000     0.773000000    -0.821000000
H     5.001000000    -0.036000000    -0.724000000
H     4.843000000     1.445000000    -0.996000000
O     0.026000000    -5.701000000     0.643000000
H     0.459000000    -4.882000000     0.884000000
H    -0.242000000    -6.085000000     1.478000000
O    -1.087000000     4.791000000    -3.733000000
H    -0.241000000     5.055000000    -4.093000000
H    -1.133000000     3.849000000    -3.896000000
O     2.170000000    -4.063000000     0.633000000
H     2.745000000    -4.636000000     0.126000000
H     2.560000000    -4.044000000     1.506000000
O     3.213000000     4.427000000     0.061000000
H     3.230000000     3.674000000    -0.530000000
H     2.339000000     4.408000000     0.449000000
O    -2.864000000    -2.755000000    -5.019000000
H    -2.276000000    -3.475000000    -5.248000000
H    -2.446000000    -2.334000000    -4.268000000
O     0.936000000    -5.894000000    -1.979000000
H     0.778000000    -5.513000000    -2.842000000
H     0.457000000    -5.327000000    -1.375000000
O     3.428000000     3.000000000     6.495000000
H     2.918000000     3.266000000     5.730000000
H     3.717000000     2.110000000     6.293000000
O    -0.948000000     1.053000000     3.708000000
H    -0.868000000     0.237000000     4.203000000
H    -1.340000000     1.670000000     4.326000000
O    -5.451000000    -2.089000000    -3.653000000
H    -6.165000000    -2.727000000    -3.641000000
H    -4.746000000    -2.528000000    -4.128000000
O    -0.183000000     1.078000000    -6.924000000
H     0.349000000     1.354000000    -7.670000000
H     0.169000000     0.221000000    -6.683000000
