158
-3024.75915
C     0.416000000    -1.338000000    -0.549000000
H     0.763000000    -2.344000000    -0.773000000
C     0.721000000    -0.794000000     0.730000000
H     1.316000000    -1.316000000     1.475000000
C     0.257000000     0.490000000     1.114000000
H     0.502000000     0.835000000     2.173000000
C    -0.580000000     1.182000000     0.256000000
H    -1.077000000     2.064000000     0.653000000
C    -0.805000000     0.684000000    -1.009000000
H    -1.430000000     1.259000000    -1.689000000
C    -0.304000000    -0.530000000    -1.459000000
C    -0.523000000    -1.065000000    -2.897000000
O     0.337000000    -1.705000000    -3.480000000
O    -1.451000000    -0.620000000    -3.559000000
O     3.246000000     3.947000000     5.477000000
H     3.178000000     3.538000000     6.340000000
H     3.979000000     3.498000000     5.056000000
O     1.266000000     2.862000000    -3.167000000
H     1.660000000     3.734000000    -3.152000000
H     1.759000000     2.366000000    -2.513000000
O    -3.676000000    -2.285000000    -6.383000000
H    -3.905000000    -2.348000000    -7.311000000
H    -2.755000000    -2.543000000    -6.345000000
O     2.114000000     1.064000000     5.756000000
H     1.616000000     0.647000000     5.053000000
H     1.599000000     1.837000000     5.989000000
O    -3.996000000     5.456000000     1.732000000
H    -3.499000000     4.692000000     2.024000000
H    -3.473000000     6.206000000     2.017000000
O    -3.510000000    -4.396000000    -3.580000000
H    -3.275000000    -3.496000000    -3.357000000
H    -2.715000000    -4.901000000    -3.408000000
O     1.892000000     0.045000000    -4.903000000
H     2.556000000     0.212000000    -4.234000000
H     1.227000000    -0.478000000    -4.455000000
O    -0.757000000     1.810000000    -4.855000000
H     0.085000000     1.970000000    -4.430000000
H    -1.017000000     0.940000000    -4.552000000
O    -4.076000000    -2.656000000    -0.261000000
H    -4.501000000    -1.929000000    -0.716000000
H    -4.748000000    -3.336000000    -0.215000000
O     2.311000000    -3.983000000     0.948000000
H     3.160000000    -3.543000000     0.931000000
H     2.179000000    -4.284000000     0.049000000
O     2.484000000    -1.663000000     6.481000000
H     2.503000000    -0.707000000     6.525000000
H     1.832000000    -1.859000000     5.808000000
O    -3.643000000     1.588000000    -6.981000000
H    -2.790000000     1.360000000    -7.351000000
H    -3.595000000     1.299000000    -6.070000000
O    -0.971000000    -4.601000000    -2.476000000
H    -0.128000000    -4.684000000    -2.923000000
H    -0.949000000    -3.728000000    -2.085000000
O     4.014000000     2.214000000     1.705000000
H     3.535000000     3.041000000     1.658000000
H     3.578000000     1.647000000     1.069000000
O     2.065000000    -3.200000000    -5.301000000
H     1.382000000    -2.646000000    -4.922000000
H     2.856000000    -2.973000000    -4.811000000
O    -4.797000000     0.441000000     2.792000000
H    -4.452000000    -0.290000000     3.306000000
H    -4.489000000     1.223000000     3.251000000
O    -0.437000000    -0.217000000     5.736000000
H    -0.224000000    -0.094000000     6.661000000
H    -1.289000000    -0.654000000     5.742000000
O    -5.861000000    -0.916000000    -1.845000000
H    -6.643000000    -1.329000000    -2.213000000
H    -5.627000000    -0.240000000    -2.481000000
O    -3.768000000     2.359000000     4.427000000
H    -2.819000000     2.346000000     4.553000000
H    -4.020000000     3.267000000     4.596000000
O    -3.710000000    -1.796000000     3.792000000
H    -3.319000000    -1.438000000     2.994000000
H    -3.275000000    -2.640000000     3.914000000
O     4.699000000     0.751000000     5.967000000
H     4.955000000     1.433000000     5.347000000
H     3.749000000     0.838000000     6.040000000
O    -3.512000000     3.603000000    -2.166000000
H    -2.571000000     3.717000000    -2.301000000
H    -3.914000000     4.322000000    -2.654000000
O     2.809000000    -2.049000000    -2.633000000
H     3.405000000    -1.460000000    -3.096000000
H     1.946000000    -1.649000000    -2.739000000
O     0.915000000     4.088000000     3.757000000
H     0.207000000     4.732000000     3.768000000
H     1.461000000     4.320000000     4.508000000
O    -0.721000000     3.311000000    -7.254000000
H    -0.839000000     2.807000000    -6.449000000
H    -0.306000000     4.125000000    -6.969000000
O    -5.886000000     2.597000000    -0.916000000
H    -5.974000000     1.804000000    -1.444000000
H    -4.982000000     2.880000000    -1.058000000
O    -0.178000000    -4.565000000     1.813000000
H     0.684000000    -4.233000000     1.560000000
H    -0.570000000    -3.853000000     2.317000000
O     2.351000000     1.853000000    -0.676000000
H     2.168000000     2.632000000    -0.150000000
H     1.604000000     1.276000000    -0.519000000
O     2.027000000    -5.378000000    -7.040000000
H     1.116000000    -5.390000000    -7.335000000
H     2.069000000    -4.650000000    -6.421000000
O    -3.781000000    -0.122000000    -4.673000000
H    -3.041000000    -0.215000000    -4.073000000
H    -3.718000000    -0.881000000    -5.252000000
O     3.763000000    -1.071000000    -0.005000000
H     4.512000000    -1.035000000    -0.600000000
H     3.006000000    -0.892000000    -0.562000000
O     1.597000000    -3.052000000     4.349000000
H     1.956000000    -3.940000000     4.333000000
H     2.310000000    -2.500000000     4.025000000
O     0.134000000     2.679000000     7.140000000
H    -0.570000000     3.328000000     7.152000000
H    -0.222000000     1.930000000     7.618000000
O    -1.148000000     2.119000000     4.302000000
H    -0.630000000     1.493000000     4.807000000
H    -0.524000000     2.800000000     4.051000000
O     3.747000000     0.547000000    -3.077000000
H     4.637000000     0.564000000    -3.429000000
H     3.704000000     1.308000000    -2.499000000
O    -1.069000000     4.561000000    -4.077000000
H    -0.116000000     4.561000000    -3.986000000
H    -1.286000000     3.664000000    -4.332000000
O     1.720000000     3.783000000     1.223000000
H     1.081000000     4.304000000     0.738000000
H     1.456000000     3.870000000     2.139000000
O     2.025000000    -4.609000000    -1.726000000
H     2.510000000    -5.316000000    -2.152000000
H     2.378000000    -3.809000000    -2.115000000
O     3.098000000    -0.767000000     3.181000000
H     2.903000000    -0.212000000     2.426000000
H     3.686000000    -0.240000000     3.721000000
O     5.347000000     2.669000000     4.164000000
H     5.265000000     2.305000000     3.283000000
H     6.257000000     2.961000000     4.219000000
O    -1.208000000    -2.805000000    -5.488000000
H    -0.630000000    -3.449000000    -5.080000000
H    -1.156000000    -2.040000000    -4.916000000
O    -2.136000000    -5.852000000    -0.105000000
H    -2.063000000    -5.184000000    -0.787000000
H    -1.730000000    -5.455000000     0.665000000
O     5.258000000    -3.652000000    -2.145000000
H     5.780000000    -3.034000000    -1.634000000
H     4.377000000    -3.279000000    -2.145000000
O    -2.204000000    -1.628000000     1.626000000
H    -1.599000000    -1.084000000     1.122000000
H    -2.870000000    -1.896000000     0.993000000
O    -1.338000000     0.163000000    -7.971000000
H    -1.566000000    -0.389000000    -7.223000000
H    -0.453000000     0.473000000    -7.778000000
O    -1.154000000    -3.451000000     5.355000000
H    -0.371000000    -3.183000000     4.874000000
H    -0.885000000    -3.443000000     6.274000000
O    -5.558000000     1.115000000    -3.320000000
H    -5.823000000     1.846000000    -3.878000000
H    -4.714000000     0.836000000    -3.675000000
O     1.878000000    -0.549000000    -7.797000000
H     1.569000000    -0.403000000    -6.903000000
H     2.833000000    -0.541000000    -7.724000000
