158
-3022.64619
C    -0.028000000     1.137000000     1.017000000
H     0.044000000     2.063000000     1.583000000
C     1.133000000     0.535000000     0.536000000
H     2.119000000     0.826000000     0.890000000
C     1.044000000    -0.486000000    -0.435000000
H     1.933000000    -0.796000000    -0.993000000
C    -0.219000000    -0.944000000    -0.827000000
H    -0.184000000    -1.688000000    -1.619000000
C    -1.399000000    -0.432000000    -0.247000000
H    -2.320000000    -0.912000000    -0.566000000
C    -1.311000000     0.623000000     0.626000000
C    -2.660000000     1.209000000     1.144000000
O    -2.672000000     2.001000000     2.036000000
O    -3.694000000     0.997000000     0.614000000
O     0.115000000     0.194000000    -4.326000000
H    -0.109000000    -0.723000000    -4.169000000
H    -0.668000000     0.567000000    -4.731000000
O     5.419000000    -1.249000000    -1.583000000
H     5.782000000    -0.649000000    -0.932000000
H     5.223000000    -2.047000000    -1.092000000
O     5.796000000     4.051000000     2.452000000
H     6.447000000     4.483000000     3.005000000
H     5.223000000     3.595000000     3.068000000
O    -7.132000000    -2.163000000    -2.945000000
H    -7.254000000    -1.214000000    -2.925000000
H    -6.266000000    -2.301000000    -2.562000000
O     1.262000000     3.103000000     6.111000000
H     0.445000000     3.068000000     6.608000000
H     1.927000000     2.783000000     6.721000000
O    -1.780000000     5.599000000     3.377000000
H    -0.830000000     5.684000000     3.462000000
H    -1.916000000     5.330000000     2.468000000
O    -5.606000000    -0.920000000     1.417000000
H    -4.939000000    -0.249000000     1.271000000
H    -5.165000000    -1.745000000     1.213000000
O     2.078000000    -4.783000000     2.534000000
H     1.355000000    -5.308000000     2.189000000
H     2.865000000    -5.196000000     2.179000000
O    -3.614000000    -2.588000000     0.867000000
H    -3.120000000    -3.144000000     0.265000000
H    -3.075000000    -2.552000000     1.658000000
O    -7.565000000     2.362000000    -0.047000000
H    -6.908000000     2.576000000     0.616000000
H    -7.231000000     2.760000000    -0.851000000
O    -5.481000000     5.774000000     2.174000000
H    -6.040000000     5.934000000     2.933000000
H    -5.520000000     4.826000000     2.043000000
O    -1.900000000    -2.322000000     3.245000000
H    -1.821000000    -3.273000000     3.323000000
H    -1.019000000    -2.027000000     3.014000000
O    -3.540000000     3.618000000     3.915000000
H    -3.135000000     2.952000000     3.359000000
H    -3.089000000     4.430000000     3.683000000
O     2.130000000     4.019000000     2.079000000
H     2.598000000     3.465000000     2.703000000
H     2.478000000     3.764000000     1.224000000
O     4.330000000     1.188000000    -3.148000000
H     3.386000000     1.063000000    -3.049000000
H     4.720000000     0.457000000    -2.668000000
O    -2.565000000    -4.230000000    -1.399000000
H    -2.702000000    -3.583000000    -2.091000000
H    -1.796000000    -4.725000000    -1.682000000
O    -5.352000000     2.919000000     1.709000000
H    -4.654000000     2.413000000     1.293000000
H    -5.259000000     2.732000000     2.643000000
O    -8.186000000    -0.341000000     0.752000000
H    -8.096000000     0.519000000     0.342000000
H    -7.292000000    -0.589000000     0.987000000
O     2.980000000     3.678000000    -3.859000000
H     3.333000000     2.886000000    -3.453000000
H     3.598000000     4.367000000    -3.615000000
O     0.916000000    -2.144000000     3.104000000
H     1.074000000    -2.599000000     3.932000000
H     1.376000000    -2.670000000     2.450000000
O     0.610000000     5.783000000     0.611000000
H    -0.290000000     5.456000000     0.593000000
H     1.073000000     5.178000000     1.191000000
O     3.243000000     2.412000000     3.886000000
H     3.718000000     1.584000000     3.953000000
H     2.557000000     2.348000000     4.551000000
O    -0.377000000    -6.301000000    -2.335000000
H     0.267000000    -6.644000000    -2.955000000
H    -1.215000000    -6.639000000    -2.650000000
O     2.100000000    -4.111000000    -0.579000000
H     1.511000000    -3.472000000    -0.979000000
H     1.544000000    -4.869000000    -0.399000000
O     4.682000000    -0.147000000     3.530000000
H     5.473000000    -0.038000000     4.058000000
H     4.870000000    -0.900000000     2.969000000
O    -3.406000000    -2.668000000    -3.321000000
H    -3.455000000    -1.731000000    -3.509000000
H    -3.583000000    -3.090000000    -4.162000000
O    -6.333000000     3.262000000    -2.362000000
H    -5.534000000     2.826000000    -2.066000000
H    -6.170000000     3.459000000    -3.285000000
O     4.772000000    -3.489000000    -0.280000000
H     3.840000000    -3.643000000    -0.432000000
H     5.139000000    -4.362000000    -0.139000000
O    -2.028000000     4.573000000     0.850000000
H    -2.026000000     3.616000000     0.885000000
H    -2.472000000     4.782000000     0.029000000
O     7.543000000     0.318000000     0.274000000
H     6.836000000     0.889000000     0.574000000
H     7.706000000     0.593000000    -0.629000000
O     1.177000000    -0.380000000     5.225000000
H     1.149000000    -0.860000000     4.398000000
H     0.479000000     0.271000000     5.149000000
O     2.666000000    -3.512000000    -3.893000000
H     2.471000000    -4.308000000    -4.387000000
H     1.841000000    -3.026000000    -3.885000000
O     5.437000000     2.285000000     0.550000000
H     5.568000000     2.832000000     1.324000000
H     4.687000000     2.677000000     0.104000000
O     3.193000000     3.389000000    -0.519000000
H     3.467000000     4.276000000    -0.754000000
H     2.573000000     3.140000000    -1.204000000
O     0.199000000    -2.607000000    -4.340000000
H     0.535000000    -2.779000000    -5.220000000
H    -0.134000000    -3.453000000    -4.041000000
O    -4.014000000     1.723000000    -1.861000000
H    -3.818000000     1.470000000    -0.959000000
H    -3.244000000     2.219000000    -2.143000000
O    -2.028000000     0.558000000     4.348000000
H    -2.025000000     1.151000000     3.596000000
H    -2.488000000    -0.221000000     4.036000000
O     5.522000000    -2.516000000     2.299000000
H     5.057000000    -2.808000000     1.515000000
H     6.404000000    -2.875000000     2.203000000
O     1.114000000     5.406000000     4.231000000
H     0.946000000     4.690000000     4.845000000
H     1.692000000     5.024000000     3.571000000
O    -6.234000000    -2.104000000     4.125000000
H    -6.168000000    -1.645000000     3.287000000
H    -5.583000000    -2.802000000     4.067000000
O    -6.957000000     0.590000000    -3.478000000
H    -6.901000000     1.262000000    -2.798000000
H    -7.540000000     0.965000000    -4.138000000
O     6.442000000    -0.404000000    -5.243000000
H     7.107000000    -0.813000000    -5.795000000
H     5.971000000    -1.139000000    -4.850000000
O     5.239000000    -2.592000000    -3.907000000
H     4.317000000    -2.843000000    -3.969000000
H     5.327000000    -2.218000000    -3.030000000
O    -6.281000000     2.796000000     4.686000000
H    -5.464000000     3.268000000     4.848000000
H    -6.909000000     3.478000000     4.448000000
O    -4.368000000    -0.234000000    -3.807000000
H    -5.301000000    -0.117000000    -3.984000000
H    -4.192000000     0.339000000    -3.060000000
O    -2.642000000     1.651000000     6.831000000
H    -2.223000000     1.482000000     5.987000000
H    -2.963000000     2.550000000     6.763000000
O    -1.599000000     2.971000000    -2.066000000
H    -1.733000000     3.902000000    -1.887000000
H    -0.649000000     2.871000000    -2.117000000
O     1.070000000     1.813000000    -2.305000000
H     0.829000000     1.152000000    -2.953000000
H     1.064000000     1.344000000    -1.471000000
