158
-3006.62000
C    -0.186000000     0.838000000     1.191000000
H    -0.132000000     1.504000000     2.049000000
C     0.988000000     0.106000000     0.853000000
H     1.897000000     0.124000000     1.449000000
C     0.964000000    -0.628000000    -0.307000000
H     1.908000000    -1.019000000    -0.669000000
C    -0.167000000    -0.726000000    -1.067000000
H    -0.246000000    -1.500000000    -1.827000000
C    -1.276000000     0.028000000    -0.761000000
H    -2.212000000    -0.120000000    -1.294000000
C    -1.302000000     0.820000000     0.357000000
C    -2.468000000     1.675000000     0.596000000
O    -2.320000000     2.639000000     1.360000000
O    -3.499000000     1.604000000    -0.045000000
O    -5.283000000    -3.640000000    -3.107000000
H    -4.494000000    -3.377000000    -3.581000000
H    -5.939000000    -2.988000000    -3.354000000
O     3.276000000    -2.306000000    -3.061000000
H     3.111000000    -2.628000000    -2.175000000
H     3.269000000    -3.092000000    -3.607000000
O    -4.208000000     6.578000000    -0.862000000
H    -3.581000000     5.990000000    -0.440000000
H    -4.672000000     6.995000000    -0.136000000
O    -1.761000000     5.186000000     5.430000000
H    -1.918000000     4.346000000     4.998000000
H    -2.501000000     5.733000000     5.166000000
O    -2.765000000    -2.580000000    -4.452000000
H    -2.061000000    -3.147000000    -4.768000000
H    -3.005000000    -2.050000000    -5.212000000
O    -2.664000000    -4.540000000     1.709000000
H    -2.048000000    -5.008000000     2.272000000
H    -2.407000000    -3.621000000     1.785000000
O     4.683000000    -0.980000000     3.912000000
H     5.200000000    -0.205000000     3.690000000
H     4.703000000    -1.516000000     3.120000000
O     1.924000000    -6.717000000     1.161000000
H     2.143000000    -7.605000000     0.877000000
H     1.106000000    -6.516000000     0.707000000
O    -7.482000000     2.598000000     1.096000000
H    -7.909000000     2.525000000     0.242000000
H    -6.546000000     2.553000000     0.899000000
O    -1.916000000     7.267000000     2.345000000
H    -2.555000000     7.233000000     3.057000000
H    -2.195000000     6.579000000     1.740000000
O    -5.598000000     5.956000000     2.306000000
H    -5.475000000     5.331000000     1.591000000
H    -5.617000000     6.811000000     1.876000000
O     0.502000000    -3.720000000     2.953000000
H     0.934000000    -3.662000000     3.805000000
H     0.766000000    -2.922000000     2.496000000
O    -3.006000000     3.137000000     3.963000000
H    -2.665000000     3.117000000     3.069000000
H    -3.951000000     3.028000000     3.862000000
O     1.845000000     4.903000000     2.381000000
H     1.442000000     5.093000000     1.534000000
H     1.226000000     5.250000000     3.024000000
O     2.415000000     1.418000000     4.000000000
H     2.991000000     0.654000000     3.973000000
H     2.722000000     1.975000000     3.285000000
O     5.975000000     1.042000000     2.699000000
H     6.069000000     1.994000000     2.667000000
H     6.750000000     0.710000000     2.247000000
O     3.868000000    -4.907000000    -4.944000000
H     3.466000000    -4.901000000    -5.812000000
H     3.164000000    -5.182000000    -4.356000000
O    -4.521000000    -0.520000000     4.026000000
H    -3.867000000    -0.804000000     3.388000000
H    -4.857000000     0.304000000     3.674000000
O     3.462000000     0.476000000    -3.053000000
H     2.937000000    -0.310000000    -3.205000000
H     4.124000000     0.203000000    -2.417000000
O    -4.010000000     6.370000000     4.285000000
H    -4.368000000     5.834000000     3.577000000
H    -4.490000000     7.196000000     4.226000000
O     0.018000000     4.502000000    -0.328000000
H     0.819000000     4.200000000    -0.756000000
H    -0.330000000     3.722000000     0.106000000
O     2.188000000    -6.259000000    -2.968000000
H     2.577000000    -6.975000000    -3.471000000
H     2.922000000    -5.878000000    -2.487000000
O     7.625000000     0.069000000    -3.060000000
H     7.701000000    -0.875000000    -2.921000000
H     7.353000000     0.415000000    -2.210000000
O    -6.001000000    -2.359000000    -0.701000000
H    -5.327000000    -2.670000000    -1.306000000
H    -6.380000000    -3.158000000    -0.334000000
O    -1.997000000    -1.079000000     3.236000000
H    -1.560000000    -1.047000000     2.385000000
H    -1.539000000    -0.426000000     3.766000000
O     0.099000000    -1.556000000    -4.997000000
H    -0.726000000    -1.071000000    -4.979000000
H    -0.110000000    -2.365000000    -5.464000000
O    -0.130000000    -1.038000000     6.652000000
H    -0.873000000    -1.576000000     6.378000000
H    -0.028000000    -0.396000000     5.948000000
O     4.464000000     4.183000000     2.348000000
H     4.732000000     4.798000000     3.031000000
H     3.508000000     4.217000000     2.357000000
O    -5.060000000     3.803000000     0.480000000
H    -5.131000000     4.067000000    -0.437000000
H    -4.406000000     3.104000000     0.478000000
O     3.167000000    -4.232000000     0.857000000
H     2.433000000    -3.941000000     0.315000000
H     2.899000000    -5.091000000     1.182000000
O    -2.433000000     5.287000000     0.705000000
H    -1.552000000     5.303000000     0.331000000
H    -2.575000000     4.372000000     0.946000000
O     0.915000000    -3.832000000    -0.889000000
H     0.530000000    -4.110000000    -1.721000000
H     0.284000000    -3.209000000    -0.529000000
O    -0.371000000     0.655000000     4.568000000
H    -0.695000000     1.500000000     4.880000000
H     0.422000000     0.869000000     4.077000000
O     5.769000000     3.087000000    -2.719000000
H     5.054000000     2.506000000    -2.977000000
H     6.489000000     2.858000000    -3.307000000
O    -7.590000000     2.304000000    -1.725000000
H    -6.850000000     1.697000000    -1.733000000
H    -8.299000000     1.812000000    -1.311000000
O    -5.899000000     0.376000000    -0.487000000
H    -5.175000000     0.876000000    -0.109000000
H    -5.653000000    -0.540000000    -0.353000000
O     5.223000000     0.171000000    -0.815000000
H     4.995000000     0.890000000    -0.227000000
H     5.188000000    -0.610000000    -0.263000000
O     4.413000000    -5.090000000    -1.656000000
H     5.307000000    -5.386000000    -1.826000000
H     4.459000000    -4.667000000    -0.798000000
O    -5.473000000     0.798000000    -4.267000000
H    -4.873000000     0.958000000    -3.539000000
H    -5.016000000     0.163000000    -4.819000000
O    -3.528000000     1.382000000    -2.653000000
H    -2.805000000     1.933000000    -2.952000000
H    -3.482000000     1.422000000    -1.698000000
O    -1.946000000     3.144000000    -3.831000000
H    -1.979000000     4.030000000    -3.472000000
H    -1.907000000     3.271000000    -4.779000000
O    -0.189000000    -5.048000000    -2.996000000
H     0.652000000    -5.447000000    -2.772000000
H    -0.223000000    -5.081000000    -3.952000000
O     5.037000000    -2.046000000     1.100000000
H     5.839000000    -2.567000000     1.070000000
H     4.330000000    -2.690000000     1.054000000
O     1.092000000     2.727000000    -4.523000000
H     0.681000000     2.224000000    -5.226000000
H     0.461000000     2.692000000    -3.804000000
O    -6.213000000     2.282000000     3.942000000
H    -7.167000000     2.359000000     3.905000000
H    -6.001000000     2.384000000     4.870000000
O    -5.017000000     3.975000000    -4.204000000
H    -4.600000000     3.130000000    -4.031000000
H    -4.569000000     4.587000000    -3.620000000
O     2.120000000     0.013000000    -5.966000000
H     1.637000000    -0.460000000    -5.289000000
H     2.433000000    -0.670000000    -6.560000000
O     1.635000000     2.360000000    -1.449000000
H     2.146000000     2.151000000    -2.230000000
H     1.313000000     1.513000000    -1.139000000
