158
-3032.18363
C     0.316000000     1.404000000     0.404000000
H     0.711000000     2.357000000     0.746000000
C     1.261000000     0.404000000     0.201000000
H     2.279000000     0.511000000     0.567000000
C     0.846000000    -0.897000000    -0.238000000
H     1.543000000    -1.780000000    -0.207000000
C    -0.528000000    -1.080000000    -0.589000000
H    -0.883000000    -2.062000000    -0.891000000
C    -1.416000000    -0.051000000    -0.393000000
H    -2.470000000    -0.239000000    -0.580000000
C    -1.012000000     1.187000000     0.112000000
C    -2.130000000     2.251000000     0.359000000
O    -1.898000000     3.416000000     0.629000000
O    -3.259000000     1.824000000     0.508000000
O     5.637000000    -2.653000000    -3.626000000
H     5.963000000    -1.979000000    -3.030000000
H     6.416000000    -2.962000000    -4.088000000
O    -3.585000000    -2.371000000    -1.505000000
H    -4.012000000    -2.394000000    -2.361000000
H    -2.873000000    -1.739000000    -1.609000000
O    -0.106000000    -3.701000000    -4.984000000
H    -0.310000000    -4.591000000    -5.270000000
H     0.437000000    -3.817000000    -4.205000000
O     2.973000000    -3.400000000    -3.438000000
H     2.995000000    -4.086000000    -2.771000000
H     3.890000000    -3.152000000    -3.556000000
O    -2.604000000     7.014000000    -0.073000000
H    -3.073000000     6.217000000    -0.321000000
H    -3.011000000     7.703000000    -0.598000000
O    -3.150000000     5.099000000     4.276000000
H    -3.596000000     4.538000000     3.642000000
H    -3.281000000     5.987000000     3.945000000
O     2.027000000     0.631000000     3.118000000
H     2.847000000     0.982000000     2.772000000
H     1.774000000    -0.049000000     2.492000000
O    -6.518000000     2.743000000     1.285000000
H    -7.137000000     2.707000000     0.556000000
H    -6.083000000     1.890000000     1.272000000
O    -0.657000000     6.922000000     3.428000000
H    -0.514000000     6.448000000     2.609000000
H    -1.567000000     7.213000000     3.381000000
O    -4.237000000     3.620000000     2.525000000
H    -3.728000000     3.592000000     1.715000000
H    -5.101000000     3.291000000     2.277000000
O    -1.000000000     3.510000000     3.171000000
H    -1.444000000     4.245000000     3.594000000
H    -1.434000000     3.425000000     2.322000000
O     0.130000000     1.612000000     4.734000000
H     0.770000000     1.369000000     4.065000000
H    -0.519000000     2.137000000     4.266000000
O     4.409000000     1.824000000     2.667000000
H     4.363000000     2.668000000     3.116000000
H     5.189000000     1.403000000     3.028000000
O     3.376000000    -0.755000000     5.215000000
H     2.915000000     0.017000000     4.887000000
H     3.568000000    -1.270000000     4.431000000
O    -6.058000000     0.790000000     4.590000000
H    -5.417000000     0.793000000     3.879000000
H    -5.531000000     0.743000000     5.387000000
O     2.889000000    -0.268000000    -3.283000000
H     2.320000000    -1.032000000    -3.370000000
H     3.585000000    -0.553000000    -2.690000000
O     0.563000000     7.901000000    -0.067000000
H     0.333000000     7.187000000     0.528000000
H     1.511000000     7.995000000     0.026000000
O    -0.580000000     4.093000000    -1.479000000
H     0.105000000     3.429000000    -1.557000000
H    -0.816000000     4.087000000    -0.552000000
O     7.115000000    -1.135000000    -2.005000000
H     7.371000000    -1.847000000    -1.419000000
H     6.408000000    -0.686000000    -1.542000000
O    -6.144000000     0.418000000    -3.817000000
H    -6.017000000    -0.320000000    -3.221000000
H    -6.946000000     0.839000000    -3.509000000
O     3.818000000     3.585000000    -2.188000000
H     4.670000000     3.777000000    -2.580000000
H     4.022000000     3.037000000    -1.430000000
O     2.034000000    -7.677000000    -0.730000000
H     1.204000000    -7.225000000    -0.573000000
H     2.386000000    -7.842000000     0.145000000
O    -0.436000000    -5.644000000     2.953000000
H    -1.182000000    -6.203000000     3.171000000
H    -0.797000000    -4.758000000     2.937000000
O    -5.787000000    -2.339000000     0.018000000
H    -5.145000000    -2.532000000    -0.666000000
H    -5.332000000    -2.537000000     0.836000000
O    -3.701000000     0.347000000     2.582000000
H    -3.464000000     0.522000000     1.671000000
H    -3.531000000     1.172000000     3.037000000
O    -2.083000000     3.056000000    -4.683000000
H    -2.749000000     2.739000000    -4.074000000
H    -1.988000000     3.985000000    -4.472000000
O     2.194000000     5.524000000     1.928000000
H     2.659000000     5.674000000     1.105000000
H     1.269000000     5.509000000     1.681000000
O    -4.177000000     4.855000000    -0.460000000
H    -4.991000000     4.351000000    -0.445000000
H    -3.489000000     4.203000000    -0.326000000
O     1.962000000    -3.819000000     1.781000000
H     1.409000000    -4.496000000     1.391000000
H     2.189000000    -4.164000000     2.645000000
O     5.293000000     2.077000000    -0.116000000
H     6.222000000     1.904000000     0.034000000
H     4.894000000     2.020000000     0.752000000
O    -0.619000000     5.845000000     1.096000000
H    -1.207000000     6.568000000     0.882000000
H    -1.181000000     5.070000000     1.094000000
O     5.621000000    -2.466000000     0.784000000
H     5.831000000    -3.297000000     0.359000000
H     6.428000000    -2.216000000     1.234000000
O    -0.272000000    -6.196000000     0.118000000
H    -0.437000000    -6.297000000     1.055000000
H    -1.116000000    -6.382000000    -0.295000000
O     3.207000000     5.850000000    -0.706000000
H     3.416000000     6.537000000    -1.339000000
H     2.974000000     5.093000000    -1.242000000
O     3.159000000    -4.492000000     4.306000000
H     3.337000000    -5.048000000     5.064000000
H     2.441000000    -3.925000000     4.588000000
O    -7.240000000     2.128000000    -1.529000000
H    -6.888000000     1.383000000    -1.042000000
H    -8.019000000     1.783000000    -1.965000000
O    -5.594000000     0.398000000    -0.130000000
H    -4.692000000     0.648000000     0.069000000
H    -5.587000000    -0.559000000    -0.111000000
O     4.609000000    -0.469000000    -1.114000000
H     4.353000000     0.316000000    -0.631000000
H     4.792000000    -1.119000000    -0.435000000
O     2.765000000    -4.583000000    -1.038000000
H     3.570000000    -4.839000000    -0.588000000
H     2.475000000    -3.794000000    -0.581000000
O    -3.495000000    -4.646000000     0.327000000
H    -3.284000000    -4.031000000    -0.376000000
H    -3.735000000    -4.089000000     1.068000000
O    -4.976000000    -1.999000000     3.184000000
H    -4.770000000    -1.082000000     3.002000000
H    -4.292000000    -2.282000000     3.791000000
O     0.901000000     6.175000000    -2.897000000
H     0.835000000     6.736000000    -2.124000000
H     0.333000000     5.430000000    -2.703000000
O    -2.529000000    -0.400000000    -3.547000000
H    -3.215000000     0.149000000    -3.926000000
H    -1.979000000    -0.645000000    -4.292000000
O    -4.147000000     2.020000000    -2.449000000
H    -4.808000000     1.456000000    -2.851000000
H    -4.102000000     1.727000000    -1.539000000
O    -1.747000000     5.428000000    -3.480000000
H    -1.496000000     4.930000000    -2.701000000
H    -1.329000000     6.281000000    -3.364000000
O     0.653000000    -5.528000000    -2.958000000
H     0.917000000    -5.390000000    -2.049000000
H     1.390000000    -5.992000000    -3.354000000
O     3.368000000    -1.556000000     2.313000000
H     4.246000000    -1.884000000     2.119000000
H     2.781000000    -2.244000000     2.000000000
O     1.423000000     2.434000000    -2.564000000
H     2.172000000     2.990000000    -2.349000000
H     1.788000000     1.550000000    -2.616000000
