158
-3011.29915
C    -1.146000000     0.836000000    -0.414000000
H    -1.874000000     1.529000000    -0.826000000
C     0.080000000     1.279000000    -0.011000000
H     0.274000000     2.348000000    -0.044000000
C     1.060000000     0.403000000     0.427000000
H     2.003000000     0.848000000     0.657000000
C     0.806000000    -0.938000000     0.363000000
H     1.556000000    -1.655000000     0.688000000
C    -0.399000000    -1.398000000    -0.031000000
H    -0.624000000    -2.460000000     0.021000000
C    -1.404000000    -0.521000000    -0.405000000
C    -2.613000000    -0.990000000    -1.012000000
O    -3.218000000    -0.359000000    -1.857000000
O    -2.944000000    -2.130000000    -0.887000000
O    -6.627000000     3.374000000    -2.067000000
H    -5.725000000     3.428000000    -1.750000000
H    -6.678000000     2.523000000    -2.501000000
O    -3.543000000     3.488000000     3.836000000
H    -3.595000000     2.907000000     3.076000000
H    -2.665000000     3.865000000     3.789000000
O    -3.342000000    -4.253000000    -2.538000000
H    -3.701000000    -4.013000000    -3.392000000
H    -2.871000000    -3.471000000    -2.249000000
O     4.137000000    -1.367000000     0.090000000
H     4.070000000    -1.085000000    -0.822000000
H     4.937000000    -1.891000000     0.121000000
O    -6.596000000     1.514000000     1.239000000
H    -5.973000000     1.631000000     0.521000000
H    -6.617000000     2.364000000     1.678000000
O     3.816000000    -1.724000000     2.776000000
H     2.899000000    -1.890000000     2.993000000
H     3.844000000    -1.745000000     1.819000000
O    -1.466000000    -6.653000000    -2.491000000
H    -0.595000000    -6.382000000    -2.782000000
H    -2.013000000    -5.879000000    -2.621000000
O     4.745000000     1.011000000     1.777000000
H     4.619000000     0.193000000     1.296000000
H     5.513000000     1.412000000     1.371000000
O    -4.398000000     2.038000000    -0.649000000
H    -3.941000000     1.268000000    -0.987000000
H    -3.938000000     2.781000000    -1.040000000
O    -6.379000000     1.049000000    -3.362000000
H    -5.553000000     0.827000000    -3.791000000
H    -6.957000000     1.314000000    -4.078000000
O     7.070000000     0.006000000     2.975000000
H     6.826000000    -0.360000000     3.825000000
H     6.299000000     0.499000000     2.695000000
O    -3.672000000    -1.251000000     1.839000000
H    -3.335000000    -1.583000000     1.007000000
H    -4.019000000    -2.024000000     2.282000000
O     6.197000000     4.285000000     0.030000000
H     5.741000000     3.967000000    -0.749000000
H     7.088000000     3.947000000    -0.059000000
O     0.920000000    -2.033000000     3.096000000
H     0.374000000    -1.739000000     2.367000000
H     0.312000000    -2.119000000     3.830000000
O     0.667000000     5.103000000     1.469000000
H     1.556000000     4.877000000     1.196000000
H     0.149000000     4.323000000     1.273000000
O     5.674000000    -0.946000000     5.082000000
H     4.912000000    -1.202000000     4.562000000
H     5.355000000    -0.236000000     5.639000000
O    -0.788000000    -4.857000000     2.738000000
H    -0.765000000    -4.200000000     3.434000000
H    -1.259000000    -4.431000000     2.022000000
O     2.900000000     2.844000000     3.481000000
H     2.227000000     2.354000000     3.008000000
H     3.725000000     2.442000000     3.209000000
O     4.944000000    -1.838000000    -2.763000000
H     5.684000000    -2.172000000    -3.270000000
H     4.211000000    -2.404000000    -3.008000000
O    -3.845000000     4.156000000    -2.479000000
H    -3.191000000     3.974000000    -3.153000000
H    -3.890000000     5.112000000    -2.441000000
O    -3.356000000     1.435000000     1.963000000
H    -3.459000000     0.500000000     2.138000000
H    -3.956000000     1.610000000     1.237000000
O     4.667000000    -4.848000000    -0.208000000
H     5.440000000    -4.293000000    -0.109000000
H     4.572000000    -5.279000000     0.641000000
O    -4.166000000    -3.489000000    -6.160000000
H    -5.033000000    -3.467000000    -6.565000000
H    -4.174000000    -2.761000000    -5.538000000
O    -5.002000000    -3.465000000     2.778000000
H    -5.808000000    -3.820000000     2.404000000
H    -4.457000000    -4.233000000     2.945000000
O     5.604000000    -3.523000000     3.366000000
H     4.952000000    -2.920000000     3.008000000
H     5.594000000    -3.355000000     4.308000000
O     1.925000000    -4.818000000     0.167000000
H     2.710000000    -4.333000000    -0.087000000
H     1.233000000    -4.463000000    -0.390000000
O    -3.595000000     0.422000000    -6.944000000
H    -2.739000000     0.512000000    -7.361000000
H    -3.414000000     0.497000000    -6.007000000
O     2.935000000     4.386000000     0.046000000
H     3.421000000     5.143000000    -0.281000000
H     3.540000000     3.651000000    -0.054000000
O    -3.197000000    -1.624000000    -4.188000000
H    -3.129000000    -1.233000000    -3.317000000
H    -2.297000000    -1.861000000    -4.414000000
O     0.799000000    -3.771000000    -2.664000000
H     1.386000000    -3.581000000    -3.396000000
H     0.799000000    -4.726000000    -2.599000000
O     6.824000000     1.368000000     0.089000000
H     6.673000000     0.943000000    -0.755000000
H     7.755000000     1.228000000     0.265000000
O     0.273000000     4.852000000    -1.932000000
H     0.969000000     4.654000000    -1.306000000
H     0.732000000     5.039000000    -2.751000000
O    -1.372000000     5.379000000     3.130000000
H    -0.576000000     5.304000000     2.603000000
H    -1.153000000     4.947000000     3.956000000
O     5.885000000     0.708000000    -2.514000000
H     5.408000000    -0.093000000    -2.730000000
H     5.244000000     1.408000000    -2.634000000
O     2.411000000     0.743000000    -2.509000000
H     1.934000000     0.224000000    -3.156000000
H     1.952000000     0.578000000    -1.685000000
O    -1.990000000     5.993000000    -0.728000000
H    -1.411000000     5.608000000    -1.386000000
H    -1.564000000     6.816000000    -0.487000000
O     3.861000000     2.407000000    -4.145000000
H     3.347000000     2.570000000    -4.936000000
H     3.268000000     1.925000000    -3.569000000
O    -7.603000000    -0.722000000    -1.915000000
H    -7.040000000    -1.494000000    -1.861000000
H    -7.101000000    -0.096000000    -2.437000000
O    -1.610000000     3.209000000    -3.598000000
H    -1.054000000     3.614000000    -2.932000000
H    -1.260000000     3.529000000    -4.430000000
O    -5.818000000    -5.367000000    -2.114000000
H    -6.425000000    -4.833000000    -2.626000000
H    -4.976000000    -4.918000000    -2.196000000
O     4.719000000     4.292000000    -2.215000000
H     4.792000000     3.620000000    -2.893000000
H     4.886000000     5.115000000    -2.676000000
O     0.769000000    -1.099000000    -3.595000000
H    -0.130000000    -0.951000000    -3.888000000
H     0.702000000    -1.820000000    -2.970000000
O    -5.205000000    -5.551000000     0.480000000
H    -4.676000000    -6.349000000     0.477000000
H    -5.609000000    -5.528000000    -0.388000000
O    -2.658000000    -4.213000000     0.716000000
H    -2.694000000    -3.575000000     0.003000000
H    -3.340000000    -4.850000000     0.502000000
O     1.841000000    -5.386000000     3.715000000
H     1.123000000    -5.003000000     3.211000000
H     1.569000000    -5.296000000     4.628000000
O    -3.519000000     1.144000000    -4.362000000
H    -3.512000000     0.409000000    -3.748000000
H    -2.852000000     1.743000000    -4.026000000
O    -5.395000000    -2.339000000    -1.944000000
H    -4.858000000    -2.814000000    -1.309000000
H    -4.903000000    -1.537000000    -2.120000000
O    -0.770000000     0.901000000     4.025000000
H    -1.124000000     1.719000000     4.373000000
H    -1.073000000     0.876000000     3.117000000
