158
-3039.10806
C    -1.118000000     1.013000000     0.013000000
H    -1.843000000     1.819000000     0.092000000
C     0.172000000     1.133000000     0.603000000
H     0.473000000     2.014000000     1.164000000
C     1.135000000     0.158000000     0.548000000
H     2.112000000     0.465000000     0.977000000
C     0.745000000    -1.060000000     0.006000000
H     1.390000000    -1.931000000     0.091000000
C    -0.506000000    -1.222000000    -0.572000000
H    -0.663000000    -2.092000000    -1.204000000
C    -1.482000000    -0.185000000    -0.582000000
C    -2.804000000    -0.368000000    -1.256000000
O    -3.736000000     0.423000000    -1.160000000
O    -2.918000000    -1.193000000    -2.130000000
O    -3.482000000     4.351000000    -1.125000000
H    -2.575000000     4.064000000    -1.230000000
H    -3.906000000     3.635000000    -0.650000000
O    -1.134000000    -1.510000000    -4.100000000
H    -1.187000000    -0.583000000    -4.336000000
H    -1.591000000    -1.569000000    -3.261000000
O    -5.586000000     3.829000000     3.018000000
H    -5.124000000     3.012000000     2.832000000
H    -5.120000000     4.204000000     3.765000000
O     5.147000000     0.503000000    -3.236000000
H     5.252000000     0.680000000    -4.171000000
H     4.236000000     0.731000000    -3.049000000
O     6.189000000    -3.297000000     0.030000000
H     6.012000000    -3.065000000     0.942000000
H     7.048000000    -2.915000000    -0.151000000
O    -7.340000000     1.373000000     1.367000000
H    -7.209000000     0.541000000     0.912000000
H    -8.224000000     1.312000000     1.728000000
O     1.022000000     2.200000000    -1.900000000
H     1.740000000     2.359000000    -1.287000000
H     0.431000000     1.613000000    -1.428000000
O     5.410000000    -2.317000000     2.374000000
H     5.934000000    -1.945000000     3.084000000
H     4.504000000    -2.194000000     2.656000000
O    -1.558000000    -1.984000000     2.195000000
H    -1.582000000    -2.458000000     3.027000000
H    -0.774000000    -1.438000000     2.253000000
O     3.989000000     2.376000000     3.004000000
H     3.956000000     1.464000000     3.293000000
H     3.153000000     2.747000000     3.284000000
O    -4.445000000     0.694000000    -3.981000000
H    -3.878000000     0.277000000    -3.332000000
H    -4.212000000     1.622000000    -3.941000000
O    -7.029000000     1.469000000    -5.116000000
H    -6.752000000     2.379000000    -5.011000000
H    -6.566000000     0.997000000    -4.424000000
O     1.329000000     2.308000000     4.383000000
H     0.640000000     2.858000000     4.757000000
H     1.870000000     2.060000000     5.132000000
O    -5.640000000    -2.438000000    -1.596000000
H    -5.143000000    -1.627000000    -1.699000000
H    -4.976000000    -3.105000000    -1.423000000
O     2.577000000    -2.218000000     2.809000000
H     2.182000000    -3.048000000     3.074000000
H     1.864000000    -1.582000000     2.873000000
O     2.989000000     5.542000000    -0.295000000
H     3.347000000     4.722000000     0.045000000
H     3.111000000     5.483000000    -1.242000000
O    -1.148000000    -4.168000000     0.720000000
H    -1.314000000    -3.254000000     0.947000000
H    -0.841000000    -4.138000000    -0.187000000
O    -0.511000000     4.938000000     2.967000000
H    -0.977000000     5.464000000     3.617000000
H    -0.811000000     4.043000000     3.123000000
O    -1.505000000     2.366000000     3.517000000
H    -2.288000000     2.003000000     3.103000000
H    -1.565000000     2.085000000     4.431000000
O    -4.012000000     1.498000000     2.906000000
H    -4.559000000     0.742000000     3.120000000
H    -3.978000000     1.506000000     1.949000000
O    -3.085000000     3.129000000    -4.324000000
H    -2.344000000     2.622000000    -4.657000000
H    -2.683000000     3.865000000    -3.862000000
O    -4.763000000     2.302000000     0.395000000
H    -5.539000000     1.957000000     0.837000000
H    -4.574000000     1.661000000    -0.290000000
O    -4.259000000    -2.613000000     1.597000000
H    -3.977000000    -3.466000000     1.266000000
H    -3.444000000    -2.145000000     1.778000000
O     3.173000000    -4.069000000     0.529000000
H     3.954000000    -3.909000000    -0.001000000
H     3.011000000    -3.238000000     0.974000000
O     6.582000000     3.880000000     3.297000000
H     5.817000000     3.307000000     3.352000000
H     6.871000000     3.807000000     2.387000000
O     2.811000000    -6.726000000    -1.241000000
H     2.230000000    -6.431000000    -0.540000000
H     2.761000000    -6.035000000    -1.901000000
O     4.259000000     0.319000000     4.856000000
H     4.842000000    -0.433000000     4.958000000
H     4.802000000     1.075000000     5.077000000
O    -3.502000000    -5.370000000     1.321000000
H    -2.629000000    -5.198000000     0.969000000
H    -3.865000000    -6.041000000     0.742000000
O     3.970000000     2.950000000     0.301000000
H     4.808000000     2.626000000    -0.028000000
H     3.955000000     2.685000000     1.221000000
O    -7.158000000    -1.246000000     0.753000000
H    -6.377000000    -1.775000000     0.589000000
H    -7.724000000    -1.415000000     0.001000000
O    -0.586000000    -4.461000000    -2.044000000
H    -0.451000000    -5.322000000    -2.440000000
H     0.230000000    -3.989000000    -2.211000000
O     2.066000000    -3.655000000    -2.707000000
H     2.266000000    -3.017000000    -3.392000000
H     2.906000000    -4.072000000    -2.515000000
O     1.904000000     0.350000000     6.467000000
H     1.434000000    -0.482000000     6.531000000
H     2.732000000     0.125000000     6.043000000
O     0.207000000     5.439000000     0.275000000
H     1.098000000     5.784000000     0.324000000
H    -0.008000000     5.202000000     1.178000000
O     1.518000000    -1.786000000    -4.756000000
H     0.617000000    -1.781000000    -4.432000000
H     1.807000000    -0.877000000    -4.674000000
O    -1.081000000     4.036000000    -1.776000000
H    -0.696000000     4.622000000    -1.124000000
H    -0.347000000     3.507000000    -2.086000000
O    -2.429000000     6.946000000    -1.019000000
H    -2.824000000     6.077000000    -0.939000000
H    -2.699000000     7.405000000    -0.224000000
O    -7.431000000    -1.812000000    -4.237000000
H    -6.854000000    -2.084000000    -3.523000000
H    -7.152000000    -2.339000000    -4.985000000
O     0.949000000    -5.812000000     0.889000000
H     0.181000000    -5.244000000     0.829000000
H     1.693000000    -5.224000000     0.757000000
O     6.435000000     1.855000000    -0.901000000
H     7.044000000     2.054000000    -1.613000000
H     5.931000000     1.107000000    -1.220000000
O    -1.003000000    -2.893000000    -6.951000000
H    -1.185000000    -2.632000000    -6.048000000
H    -1.177000000    -3.834000000    -6.968000000
O    -4.883000000    -6.246000000    -2.288000000
H    -4.255000000    -5.574000000    -2.022000000
H    -5.472000000    -5.796000000    -2.894000000
O    -3.346000000    -3.898000000    -1.557000000
H    -3.243000000    -2.961000000    -1.723000000
H    -2.475000000    -4.265000000    -1.706000000
O     1.003000000    -4.327000000     3.526000000
H     0.188000000    -4.041000000     3.937000000
H     0.761000000    -5.109000000     3.031000000
O    -3.788000000     0.075000000    -6.591000000
H    -4.211000000     0.341000000    -5.774000000
H    -2.990000000     0.603000000    -6.630000000
O    -5.629000000     5.266000000     0.698000000
H    -5.268000000     4.804000000    -0.059000000
H    -5.804000000     4.576000000     1.338000000
O    -3.688000000    -3.167000000    -4.909000000
H    -3.070000000    -3.880000000    -4.744000000
H    -3.748000000    -2.705000000    -4.073000000
O     0.626000000    -0.611000000     3.378000000
H     1.214000000    -0.236000000     4.034000000
H     0.098000000     0.129000000     3.078000000
