158
-3023.16413
C    -1.258000000     0.320000000    -0.737000000
H    -2.146000000     0.718000000    -1.223000000
C    -0.403000000     1.208000000    -0.126000000
H    -0.638000000     2.269000000    -0.116000000
C     0.758000000     0.803000000     0.538000000
H     1.419000000     1.459000000     1.044000000
C     1.134000000    -0.578000000     0.441000000
H     2.085000000    -0.857000000     0.889000000
C     0.175000000    -1.467000000    -0.082000000
H     0.493000000    -2.506000000    -0.087000000
C    -0.982000000    -1.051000000    -0.667000000
C    -1.847000000    -2.027000000    -1.383000000
O    -2.470000000    -1.535000000    -2.340000000
O    -1.656000000    -3.229000000    -1.246000000
O    -3.549000000     4.911000000     1.592000000
H    -2.913000000     5.391000000     1.062000000
H    -3.325000000     3.990000000     1.459000000
O    -1.522000000    -0.617000000    -4.708000000
H    -0.682000000    -0.241000000    -4.443000000
H    -1.895000000    -0.966000000    -3.898000000
O     4.244000000     1.207000000    -1.981000000
H     4.967000000     1.752000000    -2.289000000
H     4.654000000     0.577000000    -1.388000000
O     5.011000000    -1.699000000     1.909000000
H     5.226000000    -0.786000000     2.100000000
H     4.659000000    -2.039000000     2.731000000
O    -5.176000000     0.344000000     0.946000000
H    -5.123000000    -0.242000000     0.191000000
H    -6.085000000     0.641000000     0.956000000
O     2.312000000     4.388000000    -2.084000000
H     3.163000000     4.087000000    -2.401000000
H     1.763000000     3.603000000    -2.090000000
O     5.082000000    -2.550000000    -0.637000000
H     5.148000000    -2.065000000     0.185000000
H     4.704000000    -3.393000000    -0.389000000
O    -1.684000000    -6.596000000    -2.841000000
H    -1.171000000    -7.361000000    -3.100000000
H    -1.140000000    -6.153000000    -2.189000000
O    -5.224000000     4.624000000    -2.639000000
H    -4.751000000     3.812000000    -2.456000000
H    -6.148000000     4.380000000    -2.594000000
O     0.175000000    -0.954000000     4.080000000
H    -0.553000000    -1.245000000     3.531000000
H     0.551000000    -1.763000000     4.428000000
O     2.544000000     3.364000000     2.264000000
H     3.274000000     3.079000000     1.715000000
H     2.109000000     2.552000000     2.525000000
O    -4.686000000     1.870000000    -1.997000000
H    -5.074000000     1.477000000    -2.778000000
H    -5.389000000     1.860000000    -1.348000000
O    -6.123000000     0.153000000    -3.807000000
H    -5.346000000    -0.103000000    -4.304000000
H    -6.852000000    -0.254000000    -4.274000000
O     1.842000000     1.084000000     3.919000000
H     1.041000000     0.566000000     4.001000000
H     1.814000000     1.687000000     4.663000000
O    -4.957000000    -1.510000000    -1.163000000
H    -4.083000000    -1.368000000    -1.525000000
H    -5.490000000    -1.766000000    -1.916000000
O     2.579000000    -4.579000000     2.456000000
H     2.080000000    -5.357000000     2.703000000
H     2.193000000    -3.872000000     2.972000000
O     4.069000000     6.555000000    -1.528000000
H     3.479000000     5.824000000    -1.341000000
H     3.618000000     7.322000000    -1.175000000
O    -2.468000000    -3.607000000     1.600000000
H    -1.986000000    -3.770000000     0.789000000
H    -2.392000000    -4.424000000     2.092000000
O    -0.541000000     5.473000000     4.440000000
H    -0.529000000     5.986000000     5.249000000
H    -1.387000000     5.026000000     4.453000000
O    -3.336000000     0.996000000     3.780000000
H    -2.908000000     0.235000000     3.389000000
H    -2.886000000     1.748000000     3.396000000
O     2.064000000     7.497000000     1.332000000
H     2.346000000     6.919000000     2.040000000
H     1.228000000     7.132000000     1.042000000
O     4.164000000    -0.083000000     5.166000000
H     4.005000000     0.193000000     6.068000000
H     3.379000000     0.189000000     4.690000000
O    -3.122000000     2.385000000     0.980000000
H    -3.588000000     1.584000000     1.216000000
H    -2.964000000     2.302000000     0.039000000
O     4.672000000     2.849000000     5.448000000
H     4.925000000     3.655000000     4.998000000
H     4.446000000     2.242000000     4.744000000
O    -6.733000000    -3.181000000    -3.509000000
H    -6.846000000    -2.908000000    -4.419000000
H    -6.025000000    -3.824000000    -3.537000000
O     0.570000000     2.191000000     6.116000000
H     0.246000000     2.751000000     6.821000000
H     0.285000000     1.310000000     6.360000000
O     5.901000000     5.565000000     1.545000000
H     5.397000000     4.783000000     1.318000000
H     6.696000000     5.500000000     1.015000000
O     5.616000000     1.166000000     3.001000000
H     5.137000000     0.736000000     3.710000000
H     6.488000000     0.771000000     3.028000000
O     2.024000000    -3.022000000     4.592000000
H     2.975000000    -2.986000000     4.483000000
H     1.880000000    -3.754000000     5.192000000
O     0.309000000    -4.695000000    -2.200000000
H    -0.425000000    -4.155000000    -1.909000000
H     0.769000000    -4.150000000    -2.838000000
O    -4.550000000    -3.958000000    -5.651000000
H    -3.793000000    -4.112000000    -6.216000000
H    -4.215000000    -4.079000000    -4.763000000
O    -0.395000000     6.185000000    -3.129000000
H    -0.476000000     5.472000000    -2.496000000
H    -1.195000000     6.698000000    -3.015000000
O     1.636000000     1.399000000    -2.416000000
H     1.223000000     1.020000000    -1.640000000
H     2.574000000     1.273000000    -2.274000000
O     2.280000000     5.519000000     3.918000000
H     2.404000000     4.691000000     3.454000000
H     1.383000000     5.477000000     4.249000000
O     5.087000000     2.977000000     1.052000000
H     5.171000000     2.305000000     1.729000000
H     5.660000000     2.679000000     0.346000000
O     3.630000000    -2.127000000    -3.106000000
H     2.676000000    -2.109000000    -3.033000000
H     3.933000000    -2.332000000    -2.221000000
O    -0.039000000     5.446000000     1.629000000
H    -0.147000000     5.754000000     2.529000000
H     0.409000000     4.605000000     1.716000000
O    -2.408000000    -6.286000000     1.200000000
H    -1.701000000    -6.883000000     0.957000000
H    -2.871000000    -6.116000000     0.379000000
O    -1.746000000     6.099000000    -0.239000000
H    -1.034000000     6.001000000     0.393000000
H    -1.661000000     6.998000000    -0.558000000
O    -4.001000000    -0.291000000    -5.881000000
H    -4.009000000    -0.926000000    -6.598000000
H    -3.149000000    -0.414000000    -5.462000000
O     2.571000000    -6.247000000    -1.401000000
H     1.782000000    -6.053000000    -1.907000000
H     2.551000000    -5.622000000    -0.676000000
O     0.895000000     0.956000000    -5.132000000
H     1.426000000     1.510000000    -5.704000000
H     1.171000000     1.192000000    -4.247000000
O    -4.327000000    -5.627000000    -0.530000000
H    -4.835000000    -5.128000000     0.109000000
H    -4.247000000    -5.041000000    -1.283000000
O     1.631000000    -3.890000000    -4.361000000
H     0.772000000    -4.073000000    -4.743000000
H     2.240000000    -3.963000000    -5.096000000
O    -5.790000000    -4.043000000     1.029000000
H    -5.674000000    -3.393000000     0.336000000
H    -5.906000000    -3.526000000     1.826000000
O    -3.235000000    -4.407000000    -3.229000000
H    -2.796000000    -3.700000000    -2.757000000
H    -2.652000000    -5.160000000    -3.129000000
O    -0.800000000    -3.602000000    -5.379000000
H    -1.488000000    -4.182000000    -5.705000000
H    -1.148000000    -3.256000000    -4.557000000
O    -2.082000000    -1.072000000     2.447000000
H    -1.253000000    -0.842000000     2.028000000
H    -2.352000000    -1.881000000     2.014000000
