158
-3044.19898
C    -1.187000000     0.858000000     0.151000000
H    -1.949000000     1.627000000     0.048000000
C     0.032000000     1.130000000     0.737000000
H     0.253000000     2.087000000     1.202000000
C     1.029000000     0.208000000     0.608000000
H     1.995000000     0.346000000     1.018000000
C     0.878000000    -0.956000000    -0.118000000
H     1.655000000    -1.716000000    -0.132000000
C    -0.374000000    -1.243000000    -0.656000000
H    -0.501000000    -2.187000000    -1.179000000
C    -1.421000000    -0.334000000    -0.522000000
C    -2.691000000    -0.583000000    -1.253000000
O    -3.568000000     0.282000000    -1.214000000
O    -2.780000000    -1.532000000    -2.001000000
O    -3.922000000     4.460000000    -0.091000000
H    -2.985000000     4.532000000     0.092000000
H    -4.206000000     3.699000000     0.415000000
O    -2.345000000    -1.265000000    -4.622000000
H    -1.692000000    -0.587000000    -4.447000000
H    -2.524000000    -1.653000000    -3.765000000
O     4.039000000     0.082000000    -2.709000000
H     4.834000000    -0.365000000    -3.001000000
H     3.327000000    -0.508000000    -2.958000000
O     4.781000000    -1.886000000    -0.074000000
H     4.358000000    -1.453000000    -0.815000000
H     4.085000000    -2.404000000     0.330000000
O    -7.349000000     1.384000000     1.331000000
H    -7.710000000     0.741000000     0.721000000
H    -7.781000000     1.195000000     2.164000000
O     0.042000000     4.043000000    -1.832000000
H     0.965000000     4.275000000    -1.731000000
H     0.054000000     3.124000000    -2.099000000
O     5.974000000    -1.855000000    -2.803000000
H     5.974000000    -2.119000000    -1.883000000
H     6.148000000    -2.664000000    -3.284000000
O     5.217000000    -1.364000000     4.638000000
H     6.041000000    -1.848000000     4.702000000
H     4.539000000    -2.037000000     4.703000000
O    -2.736000000    -4.981000000    -4.037000000
H    -3.487000000    -5.424000000    -4.432000000
H    -2.047000000    -5.645000000    -4.020000000
O    -2.837000000    -0.387000000     3.887000000
H    -3.060000000    -1.246000000     4.243000000
H    -1.935000000    -0.482000000     3.581000000
O     2.868000000     3.985000000     2.137000000
H     3.271000000     3.125000000     2.020000000
H     2.086000000     3.814000000     2.661000000
O    -4.837000000     2.471000000    -2.271000000
H    -4.521000000     1.575000000    -2.390000000
H    -4.460000000     2.749000000    -1.436000000
O    -7.296000000     3.004000000    -3.941000000
H    -7.139000000     3.828000000    -4.402000000
H    -6.436000000     2.749000000    -3.606000000
O     1.604000000     3.237000000     4.446000000
H     1.952000000     3.659000000     5.231000000
H     0.697000000     3.538000000     4.394000000
O    -5.973000000    -0.837000000    -0.485000000
H    -5.236000000    -0.377000000    -0.887000000
H    -6.536000000    -1.077000000    -1.221000000
O     0.538000000    -4.114000000     2.410000000
H     0.164000000    -3.253000000     2.223000000
H     1.087000000    -3.974000000     3.181000000
O    -4.141000000    -3.493000000     0.793000000
H    -4.648000000    -2.989000000     1.429000000
H    -4.194000000    -2.982000000    -0.015000000
O    -0.765000000     4.395000000     5.102000000
H    -1.419000000     4.775000000     4.515000000
H    -1.232000000     3.698000000     5.562000000
O    -3.408000000     2.269000000     3.514000000
H    -2.703000000     1.788000000     3.947000000
H    -3.502000000     1.840000000     2.663000000
O    -3.651000000     2.169000000    -5.919000000
H    -4.460000000     2.315000000    -6.411000000
H    -3.922000000     1.653000000    -5.160000000
O     3.587000000     0.737000000     3.787000000
H     3.954000000     1.461000000     3.281000000
H     4.315000000     0.124000000     3.890000000
O    -4.821000000     1.973000000     0.660000000
H    -5.737000000     1.770000000     0.850000000
H    -4.597000000     1.406000000    -0.078000000
O    -6.586000000    -1.973000000    -3.254000000
H    -6.729000000    -2.368000000    -4.114000000
H    -5.870000000    -2.482000000    -2.873000000
O     4.341000000    -5.133000000    -0.827000000
H     4.268000000    -4.831000000     0.078000000
H     3.775000000    -5.903000000    -0.869000000
O    -5.855000000    -1.548000000     2.133000000
H    -6.067000000    -1.196000000     1.269000000
H    -5.215000000    -0.932000000     2.492000000
O     2.671000000    -3.404000000     1.120000000
H     3.206000000    -3.839000000     1.784000000
H     1.814000000    -3.825000000     1.191000000
O     5.862000000     4.738000000     2.337000000
H     6.327000000     4.002000000     1.941000000
H     4.947000000     4.603000000     2.091000000
O     6.556000000    -0.113000000     2.200000000
H     6.640000000    -1.060000000     2.096000000
H     7.048000000     0.086000000     2.997000000
O     1.467000000    -0.599000000     4.786000000
H     2.008000000     0.171000000     4.608000000
H     2.087000000    -1.262000000     5.089000000
O     2.548000000     4.806000000    -0.712000000
H     3.215000000     4.123000000    -0.783000000
H     2.083000000     4.602000000     0.099000000
O     7.250000000    -2.454000000     0.883000000
H     7.891000000    -2.025000000     0.316000000
H     6.403000000    -2.132000000     0.574000000
O    -0.330000000    -5.085000000    -1.077000000
H    -1.069000000    -5.660000000    -0.881000000
H    -0.689000000    -4.427000000    -1.672000000
O     1.262000000     1.533000000    -2.445000000
H     0.867000000     1.172000000    -1.651000000
H     2.131000000     1.133000000    -2.483000000
O     0.527000000     6.581000000     1.360000000
H     1.344000000     6.844000000     0.936000000
H     0.744000000     6.535000000     2.291000000
O     4.308000000     1.709000000     1.188000000
H     4.929000000     1.035000000     1.466000000
H     4.631000000     1.994000000     0.333000000
O     1.926000000    -1.540000000    -3.367000000
H     1.193000000    -1.716000000    -3.956000000
H     2.327000000    -2.397000000    -3.221000000
O    -1.331000000     4.451000000     0.464000000
H    -0.798000000     5.118000000     0.896000000
H    -0.908000000     4.318000000    -0.384000000
O    -2.687000000     6.047000000    -1.973000000
H    -3.043000000     5.510000000    -1.266000000
H    -3.224000000     6.840000000    -1.965000000
O    -4.777000000     0.126000000    -4.025000000
H    -5.376000000    -0.556000000    -3.722000000
H    -3.906000000    -0.205000000    -3.808000000
O     2.772000000    -4.044000000    -3.197000000
H     3.056000000    -4.505000000    -2.408000000
H     3.496000000    -4.158000000    -3.814000000
O     5.629000000     1.803000000    -1.225000000
H     6.340000000     1.965000000    -1.845000000
H     5.313000000     0.927000000    -1.446000000
O     0.642000000    -6.443000000     0.957000000
H     0.417000000    -5.871000000     0.223000000
H     0.789000000    -5.846000000     1.690000000
O    -0.209000000     0.469000000    -4.723000000
H    -0.550000000     1.331000000    -4.963000000
H     0.268000000     0.620000000    -3.907000000
O     0.235000000    -2.801000000    -5.141000000
H    -0.694000000    -2.594000000    -5.242000000
H     0.276000000    -3.756000000    -5.206000000
O    -6.873000000    -4.778000000    -1.135000000
H    -7.082000000    -4.470000000    -0.253000000
H    -6.308000000    -4.097000000    -1.499000000
O    -4.457000000    -3.550000000    -2.217000000
H    -3.839000000    -2.859000000    -1.975000000
H    -3.967000000    -4.108000000    -2.821000000
O    -2.975000000    -3.029000000    -6.550000000
H    -2.925000000    -3.833000000    -6.032000000
H    -2.684000000    -2.340000000    -5.952000000
O    -0.221000000    -1.268000000     2.857000000
H     0.387000000    -0.837000000     3.457000000
H    -0.019000000    -0.892000000     2.000000000
