158
-3041.01641
C     0.280000000    -1.292000000    -0.582000000
H     0.440000000    -2.303000000    -0.948000000
C    -0.590000000    -1.069000000     0.502000000
H    -1.028000000    -1.933000000     0.994000000
C    -0.883000000     0.212000000     0.910000000
H    -1.570000000     0.497000000     1.685000000
C    -0.238000000     1.292000000     0.206000000
H    -0.493000000     2.291000000     0.551000000
C     0.646000000     1.052000000    -0.873000000
H     1.044000000     1.892000000    -1.437000000
C     0.997000000    -0.251000000    -1.236000000
C     2.124000000    -0.552000000    -2.226000000
O     2.413000000     0.277000000    -3.037000000
O     2.555000000    -1.685000000    -2.321000000
O    -0.574000000     4.486000000     2.121000000
H    -1.049000000     5.317000000     2.120000000
H    -1.260000000     3.818000000     2.111000000
O     2.259000000    -3.796000000     1.908000000
H     2.318000000    -3.614000000     0.971000000
H     1.326000000    -3.716000000     2.109000000
O     3.575000000     2.382000000     2.471000000
H     3.058000000     2.952000000     1.902000000
H     3.089000000     1.558000000     2.490000000
O     0.191000000    -5.487000000     0.202000000
H    -0.008000000    -6.149000000    -0.460000000
H     0.839000000    -4.919000000    -0.215000000
O    -3.202000000     1.455000000     4.731000000
H    -3.945000000     1.478000000     4.128000000
H    -3.129000000     0.535000000     4.987000000
O    -1.295000000     0.225000000     8.124000000
H    -0.606000000     0.300000000     8.785000000
H    -0.935000000     0.664000000     7.353000000
O     2.399000000     2.809000000    -4.105000000
H     2.302000000     1.944000000    -3.705000000
H     1.995000000     2.719000000    -4.968000000
O     3.558000000     5.193000000    -4.457000000
H     3.918000000     5.792000000    -3.803000000
H     3.021000000     4.582000000    -3.953000000
O     2.156000000     4.556000000     1.521000000
H     1.222000000     4.548000000     1.734000000
H     2.528000000     5.220000000     2.101000000
O     0.106000000     0.403000000    -4.528000000
H    -0.535000000    -0.153000000    -4.084000000
H     0.915000000     0.278000000    -4.031000000
O    -0.511000000    -2.959000000     4.702000000
H    -0.140000000    -2.082000000     4.608000000
H    -0.360000000    -3.375000000     3.853000000
O    -3.779000000    -2.049000000     0.530000000
H    -3.775000000    -2.721000000     1.212000000
H    -3.073000000    -2.306000000    -0.063000000
O    -0.404000000    -4.232000000     2.375000000
H    -0.313000000    -4.850000000     1.650000000
H    -1.296000000    -3.894000000     2.291000000
O    -1.886000000     0.387000000    -2.117000000
H    -2.493000000     1.128000000    -2.120000000
H    -1.368000000     0.506000000    -1.321000000
O     0.706000000     3.937000000     4.654000000
H     0.281000000     4.274000000     3.866000000
H     1.382000000     4.584000000     4.857000000
O     3.030000000    -0.762000000    -5.412000000
H     2.575000000    -1.562000000    -5.150000000
H     3.010000000    -0.208000000    -4.632000000
O     1.930000000     0.216000000     2.450000000
H     1.249000000     0.227000000     1.778000000
H     1.507000000    -0.174000000     3.214000000
O     2.629000000    -0.709000000    -8.359000000
H     3.502000000    -0.717000000    -8.750000000
H     2.789000000    -0.638000000    -7.418000000
O    -5.524000000     2.323000000     2.700000000
H    -6.277000000     2.436000000     3.280000000
H    -5.691000000     1.495000000     2.250000000
O    -3.226000000    -3.925000000     2.265000000
H    -3.755000000    -4.101000000     3.043000000
H    -3.222000000    -4.754000000     1.786000000
O    -1.980000000     2.300000000    -5.175000000
H    -1.522000000     1.483000000    -4.979000000
H    -1.679000000     2.910000000    -4.501000000
O    -2.992000000     2.756000000    -1.327000000
H    -3.059000000     2.803000000    -0.373000000
H    -2.301000000     3.380000000    -1.550000000
O     4.071000000    -0.702000000     0.819000000
H     4.662000000    -0.193000000     1.373000000
H     3.194000000    -0.432000000     1.093000000
O     5.551000000    -2.612000000    -0.205000000
H     5.677000000    -3.279000000     0.470000000
H     4.918000000    -2.004000000     0.175000000
O     5.839000000    -4.039000000    -5.490000000
H     6.695000000    -4.426000000    -5.310000000
H     5.740000000    -3.358000000    -4.825000000
O    -1.202000000    -1.676000000    -3.529000000
H    -1.695000000    -2.455000000    -3.270000000
H    -1.577000000    -0.970000000    -3.004000000
O    -0.825000000     4.862000000    -1.023000000
H    -0.860000000     4.791000000    -0.069000000
H    -0.706000000     5.797000000    -1.189000000
O     2.357000000    -5.650000000    -5.544000000
H     2.516000000    -5.230000000    -4.698000000
H     2.775000000    -5.071000000    -6.181000000
O    -1.505000000     4.847000000    -3.625000000
H    -0.907000000     4.851000000    -2.877000000
H    -2.105000000     5.573000000    -3.455000000
O     2.278000000    -3.899000000    -0.758000000
H     2.879000000    -4.456000000    -1.253000000
H     2.346000000    -3.042000000    -1.179000000
O     3.766000000    -5.292000000    -3.031000000
H     4.362000000    -5.879000000    -2.565000000
H     4.315000000    -4.552000000    -3.292000000
O     6.400000000    -0.488000000    -1.425000000
H     5.572000000    -0.045000000    -1.238000000
H     6.289000000    -1.366000000    -1.062000000
O     4.871000000    -2.680000000    -3.265000000
H     4.066000000    -2.358000000    -2.858000000
H     5.505000000    -2.712000000    -2.549000000
O    -2.879000000    -3.309000000    -2.044000000
H    -2.657000000    -3.989000000    -1.408000000
H    -3.799000000    -3.467000000    -2.253000000
O     5.130000000     3.324000000    -5.762000000
H     4.455000000     3.964000000    -5.534000000
H     4.657000000     2.495000000    -5.840000000
O    -0.052000000     0.242000000    -7.884000000
H     0.814000000     0.048000000    -8.244000000
H     0.125000000     0.587000000    -7.008000000
O    -3.725000000     3.721000000     1.214000000
H    -4.262000000     4.420000000     0.842000000
H    -4.274000000     3.334000000     1.896000000
O     0.816000000    -0.441000000     4.971000000
H     1.501000000    -0.836000000     5.509000000
H     0.532000000     0.326000000     5.468000000
O    -7.189000000     1.816000000     0.064000000
H    -8.030000000     1.639000000     0.487000000
H    -6.574000000     1.224000000     0.497000000
O     5.913000000    -0.194000000    -4.409000000
H     5.978000000    -0.605000000    -3.546000000
H     5.369000000    -0.794000000    -4.919000000
O    -5.628000000    -0.351000000     1.550000000
H    -4.830000000    -0.737000000     1.190000000
H    -6.135000000    -1.099000000     1.866000000
O     4.815000000     3.942000000    -1.363000000
H     3.899000000     4.214000000    -1.409000000
H     4.812000000     3.035000000    -1.669000000
O    -0.619000000     1.935000000     5.983000000
H    -1.454000000     1.981000000     5.517000000
H    -0.071000000     2.595000000     5.556000000
O     1.712000000    -2.865000000    -4.668000000
H     0.828000000    -2.548000000    -4.486000000
H     2.164000000    -2.814000000    -3.826000000
O    -3.332000000     3.744000000     6.160000000
H    -3.279000000     2.964000000     5.607000000
H    -3.988000000     3.525000000     6.821000000
O    -2.977000000    -5.425000000    -0.286000000
H    -3.881000000    -5.641000000    -0.514000000
H    -2.626000000    -6.232000000     0.091000000
O     4.653000000     1.549000000    -2.524000000
H     3.885000000     0.989000000    -2.634000000
H     5.272000000     1.241000000    -3.186000000
O    -2.816000000    -1.125000000     5.314000000
H    -2.017000000    -1.651000000     5.344000000
H    -3.384000000    -1.514000000     5.978000000
