158
-3007.25103
C    -1.218000000    -0.130000000    -0.807000000
H    -2.014000000    -0.028000000    -1.541000000
C    -0.783000000     1.029000000    -0.197000000
H    -1.370000000     1.942000000    -0.246000000
C     0.276000000     0.981000000     0.674000000
H     0.590000000     1.926000000     1.187000000
C     1.059000000    -0.214000000     0.849000000
H     1.948000000    -0.112000000     1.466000000
C     0.619000000    -1.365000000     0.233000000
H     1.135000000    -2.307000000     0.396000000
C    -0.476000000    -1.355000000    -0.717000000
C    -0.741000000    -2.527000000    -1.639000000
O    -1.808000000    -2.603000000    -2.170000000
O     0.183000000    -3.323000000    -1.836000000
O    -2.501000000     5.116000000     0.342000000
H    -1.706000000     4.915000000     0.837000000
H    -3.101000000     4.400000000     0.552000000
O     0.574000000     1.571000000    -5.814000000
H     0.090000000     2.004000000    -6.517000000
H     0.276000000     2.006000000    -5.015000000
O    -4.734000000    -2.838000000    -5.259000000
H    -4.491000000    -2.231000000    -4.560000000
H    -3.915000000    -3.009000000    -5.724000000
O    -0.019000000     3.440000000     4.411000000
H     0.562000000     4.100000000     4.035000000
H     0.492000000     3.045000000     5.117000000
O     4.808000000    -1.003000000    -3.994000000
H     3.884000000    -1.192000000    -3.831000000
H     5.126000000    -0.631000000    -3.172000000
O     5.829000000     0.260000000    -1.367000000
H     6.747000000     0.244000000    -1.097000000
H     5.405000000     0.844000000    -0.739000000
O    -2.205000000     4.816000000    -2.203000000
H    -3.113000000     4.812000000    -2.505000000
H    -2.269000000     4.867000000    -1.250000000
O     3.922000000    -2.194000000     4.651000000
H     4.037000000    -2.976000000     4.111000000
H     4.513000000    -1.548000000     4.265000000
O    -2.720000000     2.897000000     4.665000000
H    -3.064000000     3.787000000     4.588000000
H    -1.783000000     2.988000000     4.491000000
O    -0.843000000    -5.236000000     0.250000000
H    -0.086000000    -5.660000000     0.653000000
H    -0.467000000    -4.633000000    -0.390000000
O    -3.309000000     2.948000000     1.798000000
H    -4.034000000     2.333000000     1.684000000
H    -2.958000000     2.745000000     2.665000000
O     0.867000000     0.287000000     4.166000000
H     0.909000000    -0.592000000     4.542000000
H    -0.046000000     0.389000000     3.897000000
O     4.175000000     4.025000000     1.978000000
H     5.078000000     3.725000000     1.876000000
H     3.749000000     3.334000000     2.485000000
O     3.204000000     1.797000000     3.519000000
H     2.388000000     1.321000000     3.673000000
H     3.875000000     1.267000000     3.950000000
O    -4.003000000    -2.020000000    -0.344000000
H    -3.197000000    -2.208000000    -0.824000000
H    -4.313000000    -1.192000000    -0.712000000
O     3.091000000     4.894000000    -0.286000000
H     3.550000000     4.551000000     0.481000000
H     2.478000000     5.538000000     0.069000000
O    -1.074000000    -3.105000000     2.487000000
H    -0.173000000    -3.264000000     2.768000000
H    -1.275000000    -3.838000000     1.905000000
O     2.503000000    -5.644000000    -4.535000000
H     1.566000000    -5.537000000    -4.372000000
H     2.748000000    -4.871000000    -5.042000000
O    -2.763000000    -6.155000000    -4.294000000
H    -3.224000000    -5.661000000    -3.616000000
H    -2.729000000    -7.050000000    -3.958000000
O    -3.206000000     0.212000000     4.849000000
H    -2.632000000    -0.154000000     4.176000000
H    -3.159000000     1.159000000     4.716000000
O    -6.667000000    -2.169000000    -1.864000000
H    -6.217000000    -1.332000000    -1.982000000
H    -6.242000000    -2.564000000    -1.103000000
O     0.987000000    -3.530000000    -6.282000000
H     0.204000000    -3.311000000    -6.787000000
H     0.651000000    -3.835000000    -5.439000000
O    -3.047000000    -3.163000000     4.159000000
H    -2.387000000    -2.901000000     3.516000000
H    -2.540000000    -3.490000000     4.902000000
O     4.491000000    -4.295000000     2.927000000
H     5.331000000    -4.729000000     2.775000000
H     3.878000000    -5.011000000     3.093000000
O    -1.951000000    -7.470000000    -1.458000000
H    -2.438000000    -7.120000000    -0.712000000
H    -1.236000000    -6.848000000    -1.591000000
O     1.300000000    -3.597000000     3.467000000
H     1.432000000    -4.482000000     3.808000000
H     1.906000000    -3.054000000     3.971000000
O     4.566000000     3.795000000    -2.256000000
H     3.880000000     3.563000000    -2.882000000
H     4.119000000     4.327000000    -1.597000000
O    -5.514000000     1.638000000     1.195000000
H    -5.749000000     1.933000000     0.315000000
H    -6.292000000     1.176000000     1.509000000
O     1.786000000    -5.355000000    -0.997000000
H     1.296000000    -4.538000000    -1.090000000
H     2.059000000    -5.572000000    -1.889000000
O    -3.317000000    -1.043000000    -3.893000000
H    -2.832000000    -1.697000000    -3.389000000
H    -2.645000000    -0.573000000    -4.386000000
O    -2.303000000     1.739000000    -5.106000000
H    -2.879000000     2.501000000    -5.169000000
H    -1.587000000     2.026000000    -4.540000000
O    -0.461000000     2.838000000    -3.384000000
H     0.163000000     2.859000000    -2.658000000
H    -1.282000000     3.149000000    -3.003000000
O     1.714000000     7.414000000    -0.200000000
H     1.055000000     8.099000000    -0.310000000
H     2.432000000     7.678000000    -0.776000000
O     2.850000000     1.504000000    -3.315000000
H     2.461000000     2.221000000    -2.814000000
H     2.245000000     0.772000000    -3.195000000
O    -3.571000000    -5.800000000     0.479000000
H    -2.692000000    -5.515000000     0.728000000
H    -3.826000000    -6.418000000     1.164000000
O     3.880000000    -1.994000000    -0.927000000
H     3.947000000    -2.454000000    -0.090000000
H     4.652000000    -1.428000000    -0.952000000
O     2.031000000     5.383000000     3.562000000
H     2.828000000     5.021000000     3.173000000
H     2.279000000     5.596000000     4.461000000
O    -4.799000000     0.153000000    -1.745000000
H    -4.429000000    -0.002000000    -2.615000000
H    -5.241000000     0.999000000    -1.820000000
O     0.338000000     6.001000000     1.568000000
H     0.978000000     5.632000000     2.177000000
H     0.847000000     6.596000000     1.017000000
O     1.361000000     2.867000000    -1.304000000
H     1.565000000     3.708000000    -0.895000000
H     1.027000000     2.327000000    -0.588000000
O     6.435000000     1.525000000     1.006000000
H     7.390000000     1.471000000     0.961000000
H     6.179000000     0.783000000     1.553000000
O     1.903000000    -0.885000000    -6.207000000
H     1.607000000    -0.028000000    -5.900000000
H     1.865000000    -1.444000000    -5.431000000
O     2.136000000    -1.879000000    -3.047000000
H     1.404000000    -2.339000000    -2.636000000
H     2.789000000    -1.798000000    -2.351000000
O    -4.040000000    -4.987000000    -2.192000000
H    -4.131000000    -4.039000000    -2.294000000
H    -4.017000000    -5.124000000    -1.245000000
O     3.863000000    -6.973000000     0.318000000
H     3.467000000    -6.748000000     1.160000000
H     3.534000000    -6.307000000    -0.286000000
O    -0.105000000     5.611000000    -4.349000000
H    -0.761000000     5.366000000    -5.001000000
H    -0.404000000     5.197000000    -3.540000000
O    -0.151000000    -4.574000000    -4.086000000
H    -0.972000000    -5.050000000    -3.960000000
H    -0.025000000    -4.093000000    -3.268000000
O    -1.709000000    -0.318000000     2.970000000
H    -1.737000000     0.046000000     2.085000000
H    -1.498000000    -1.242000000     2.843000000
