158
-3049.14831
C    -1.429000000     0.228000000    -0.247000000
H    -2.496000000     0.434000000    -0.281000000
C    -0.665000000     0.725000000     0.811000000
H    -1.140000000     1.307000000     1.598000000
C     0.674000000     0.460000000     0.900000000
H     1.271000000     0.785000000     1.760000000
C     1.275000000    -0.338000000    -0.071000000
H     2.342000000    -0.511000000     0.050000000
C     0.487000000    -0.846000000    -1.038000000
H     0.993000000    -1.519000000    -1.725000000
C    -0.846000000    -0.554000000    -1.168000000
C    -1.678000000    -1.183000000    -2.308000000
O    -2.833000000    -0.822000000    -2.419000000
O    -1.225000000    -1.944000000    -3.192000000
O    -4.523000000     1.383000000    -1.203000000
H    -4.085000000     0.672000000    -1.670000000
H    -5.426000000     1.081000000    -1.100000000
O    -2.560000000     0.738000000    -4.572000000
H    -2.666000000     0.102000000    -3.865000000
H    -2.022000000     1.432000000    -4.191000000
O    -5.616000000     0.003000000     3.390000000
H    -4.910000000     0.513000000     2.992000000
H    -5.224000000    -0.853000000     3.562000000
O     3.965000000    -1.579000000    -1.604000000
H     4.542000000    -2.343000000    -1.565000000
H     4.452000000    -0.889000000    -1.154000000
O     2.792000000    -1.630000000     4.718000000
H     2.608000000    -1.794000000     3.793000000
H     3.537000000    -2.196000000     4.918000000
O    -3.258000000    -5.353000000    -1.719000000
H    -3.742000000    -5.557000000    -2.519000000
H    -2.542000000    -4.788000000    -2.009000000
O    -3.896000000     1.291000000     1.661000000
H    -4.173000000     1.260000000     0.745000000
H    -3.603000000     0.400000000     1.852000000
O    -3.073000000    -1.378000000     2.115000000
H    -3.804000000    -1.923000000     1.824000000
H    -2.346000000    -1.627000000     1.545000000
O     0.441000000     4.600000000     1.722000000
H     0.687000000     3.962000000     2.392000000
H    -0.203000000     4.143000000     1.182000000
O    -7.057000000     0.210000000    -1.006000000
H    -7.300000000    -0.676000000    -0.738000000
H    -7.879000000     0.607000000    -1.295000000
O     3.580000000     4.934000000     3.897000000
H     4.159000000     5.683000000     3.759000000
H     3.692000000     4.711000000     4.821000000
O    -0.130000000     1.351000000     4.217000000
H     0.766000000     1.023000000     4.297000000
H    -0.675000000     0.563000000     4.223000000
O    -5.088000000    -2.472000000     0.536000000
H    -5.149000000    -2.411000000    -0.417000000
H    -5.996000000    -2.433000000     0.837000000
O     3.920000000     3.281000000    -2.010000000
H     3.925000000     2.685000000    -1.261000000
H     4.772000000     3.716000000    -1.975000000
O     1.087000000     2.865000000    -1.252000000
H     1.966000000     3.095000000    -1.555000000
H     1.159000000     1.948000000    -0.985000000
O    -3.307000000    -4.524000000     1.048000000
H    -3.265000000    -5.048000000     0.248000000
H    -3.819000000    -3.753000000     0.804000000
O     0.788000000     6.495000000     3.737000000
H     0.998000000     7.394000000     3.483000000
H     0.881000000     5.990000000     2.929000000
O     2.695000000    -0.070000000    -3.395000000
H     1.893000000    -0.404000000    -3.796000000
H     2.862000000    -0.663000000    -2.662000000
O     1.953000000    -2.207000000     2.266000000
H     1.040000000    -2.002000000     2.063000000
H     1.941000000    -3.132000000     2.514000000
O     3.116000000     1.040000000     4.769000000
H     3.937000000     1.038000000     5.262000000
H     2.978000000     0.123000000     4.531000000
O    -7.393000000    -2.297000000    -3.076000000
H    -6.499000000    -2.297000000    -3.418000000
H    -7.889000000    -1.772000000    -3.704000000
O     1.256000000     4.530000000     5.703000000
H     1.428000000     4.978000000     4.875000000
H     2.083000000     4.099000000     5.919000000
O     2.423000000    -3.716000000    -0.672000000
H     2.955000000    -4.422000000    -0.304000000
H     2.927000000    -2.921000000    -0.499000000
O    -0.760000000    -2.681000000     1.669000000
H    -0.595000000    -3.207000000     0.886000000
H    -0.909000000    -3.323000000     2.363000000
O     3.406000000     2.614000000     2.694000000
H     3.211000000     1.966000000     3.371000000
H     3.317000000     3.458000000     3.137000000
O     6.341000000    -2.861000000    -1.513000000
H     7.229000000    -3.137000000    -1.740000000
H     6.464000000    -2.181000000    -0.850000000
O     0.013000000    -4.703000000    -0.238000000
H    -0.125000000    -5.185000000    -1.053000000
H     0.769000000    -4.144000000    -0.414000000
O     6.678000000     2.740000000     3.970000000
H     6.224000000     3.431000000     3.486000000
H     6.880000000     2.078000000     3.309000000
O    -1.869000000     5.386000000    -0.415000000
H    -2.281000000     4.850000000     0.262000000
H    -2.559000000     5.986000000    -0.699000000
O    -1.010000000    -4.645000000    -3.019000000
H    -1.016000000    -3.689000000    -2.969000000
H    -0.862000000    -4.835000000    -3.945000000
O    -0.964000000    -5.014000000    -5.802000000
H    -0.067000000    -4.866000000    -6.102000000
H    -1.391000000    -4.161000000    -5.894000000
O    -4.002000000    -3.344000000    -7.568000000
H    -3.500000000    -3.497000000    -8.368000000
H    -3.384000000    -2.918000000    -6.975000000
O    -4.648000000     3.528000000    -3.210000000
H    -4.707000000     2.774000000    -2.623000000
H    -5.232000000     3.312000000    -3.937000000
O     2.148000000     6.217000000     0.178000000
H     1.511000000     5.783000000     0.745000000
H     1.745000000     6.203000000    -0.690000000
O     4.468000000    -0.919000000     1.327000000
H     3.594000000    -1.253000000     1.527000000
H     5.044000000    -1.372000000     1.942000000
O     2.349000000    -0.925000000    -6.820000000
H     1.728000000    -0.804000000    -6.102000000
H     2.655000000    -0.041000000    -7.023000000
O    -1.738000000     3.581000000     4.233000000
H    -1.364000000     2.712000000     4.380000000
H    -1.184000000     4.170000000     4.746000000
O    -2.946000000     3.794000000     1.606000000
H    -3.015000000     2.840000000     1.638000000
H    -2.636000000     4.042000000     2.477000000
O    -1.590000000     2.639000000    -2.552000000
H    -2.246000000     2.492000000    -1.871000000
H    -0.829000000     2.981000000    -2.082000000
O    -5.194000000    -0.105000000    -6.226000000
H    -4.582000000     0.586000000    -5.971000000
H    -4.975000000    -0.293000000    -7.139000000
O     4.357000000     1.714000000     0.275000000
H     3.987000000     1.856000000     1.147000000
H     4.467000000     0.765000000     0.214000000
O     5.959000000     3.947000000     1.443000000
H     5.518000000     4.711000000     1.071000000
H     5.636000000     3.209000000     0.926000000
O     0.479000000    -0.666000000    -4.963000000
H    -0.144000000    -1.100000000    -4.380000000
H     0.360000000     0.268000000    -4.789000000
O    -4.799000000    -1.796000000    -4.109000000
H    -4.755000000    -1.067000000    -4.728000000
H    -4.077000000    -1.639000000    -3.501000000
O     1.866000000    -3.751000000     6.253000000
H     2.035000000    -2.856000000     5.958000000
H     2.682000000    -4.022000000     6.673000000
O    -1.798000000    -2.418000000    -5.807000000
H    -1.296000000    -1.737000000    -6.257000000
H    -1.758000000    -2.173000000    -4.882000000
O     3.689000000    -4.011000000    -3.491000000
H     4.533000000    -3.649000000    -3.762000000
H     3.530000000    -3.626000000    -2.629000000
O    -1.706000000    -0.787000000     4.624000000
H    -1.705000000    -1.151000000     3.739000000
H    -2.296000000    -1.358000000     5.118000000
