158
-3022.67321
C    -1.359000000     0.160000000    -0.620000000
H    -2.119000000     0.779000000    -1.091000000
C    -1.027000000     0.596000000     0.696000000
H    -1.717000000     1.239000000     1.237000000
C     0.237000000     0.297000000     1.147000000
H     0.563000000     0.690000000     2.033000000
C     1.152000000    -0.402000000     0.380000000
H     2.109000000    -0.576000000     0.866000000
C     0.806000000    -0.800000000    -0.924000000
H     1.546000000    -1.364000000    -1.487000000
C    -0.452000000    -0.526000000    -1.419000000
C    -0.786000000    -1.040000000    -2.809000000
O    -1.908000000    -0.955000000    -3.281000000
O     0.114000000    -1.261000000    -3.648000000
O    -4.577000000     1.810000000    -2.658000000
H    -4.731000000     2.360000000    -1.890000000
H    -5.021000000     0.987000000    -2.456000000
O    -0.191000000    -3.340000000    -8.038000000
H    -0.561000000    -2.794000000    -7.344000000
H    -0.604000000    -4.195000000    -7.915000000
O    -2.747000000     0.803000000    -5.042000000
H    -2.259000000     0.092000000    -4.626000000
H    -3.574000000     0.840000000    -4.561000000
O    -1.076000000    -1.581000000    -6.228000000
H    -0.937000000    -0.645000000    -6.375000000
H    -0.832000000    -1.719000000    -5.313000000
O     4.305000000    -0.857000000     5.342000000
H     3.381000000    -0.911000000     5.098000000
H     4.629000000    -1.753000000     5.253000000
O     3.418000000     4.743000000     0.463000000
H     2.872000000     5.244000000     1.069000000
H     4.305000000     4.828000000     0.814000000
O    -4.829000000    -4.652000000    -3.320000000
H    -5.046000000    -3.932000000    -2.727000000
H    -5.661000000    -4.881000000    -3.733000000
O    -2.907000000    -0.902000000     2.408000000
H    -3.641000000    -0.581000000     1.884000000
H    -2.184000000    -0.979000000     1.787000000
O     5.223000000    -2.484000000     2.551000000
H     5.149000000    -2.350000000     1.607000000
H     4.336000000    -2.713000000     2.831000000
O    -0.518000000    -3.213000000     1.023000000
H    -0.457000000    -3.832000000     0.295000000
H    -0.004000000    -2.458000000     0.738000000
O    -4.082000000    -1.671000000    -2.167000000
H    -3.325000000    -1.237000000    -2.561000000
H    -4.825000000    -1.388000000    -2.701000000
O     2.333000000     2.574000000    -4.130000000
H     3.007000000     3.228000000    -4.318000000
H     2.239000000     2.594000000    -3.178000000
O     2.869000000     3.103000000     6.554000000
H     3.067000000     2.201000000     6.809000000
H     1.914000000     3.152000000     6.572000000
O     2.453000000    -3.285000000     2.825000000
H     2.337000000    -4.094000000     3.324000000
H     1.800000000    -3.338000000     2.127000000
O     2.466000000    -0.270000000    -4.127000000
H     2.492000000     0.675000000    -4.271000000
H     1.538000000    -0.468000000    -3.999000000
O    -5.508000000     3.198000000    -0.253000000
H    -5.159000000     4.085000000    -0.164000000
H    -6.431000000     3.278000000    -0.014000000
O     1.796000000     4.192000000     2.971000000
H     1.731000000     3.730000000     2.135000000
H     1.870000000     3.496000000     3.624000000
O     2.381000000     2.921000000    -1.174000000
H     2.946000000     3.451000000    -0.611000000
H     1.494000000     3.215000000    -0.968000000
O     1.730000000    -1.243000000     5.072000000
H     0.935000000    -1.209000000     5.603000000
H     1.531000000    -1.875000000     4.382000000
O     3.091000000    -4.653000000    -6.169000000
H     2.269000000    -4.308000000    -5.821000000
H     3.517000000    -5.063000000    -5.416000000
O     0.254000000     3.527000000     6.763000000
H    -0.232000000     3.150000000     6.029000000
H     0.203000000     4.472000000     6.623000000
O     1.334000000    -3.702000000    -3.779000000
H     0.948000000    -2.873000000    -4.059000000
H     1.951000000    -3.459000000    -3.090000000
O    -0.089000000     3.177000000    -0.335000000
H    -0.226000000     2.261000000    -0.093000000
H    -0.704000000     3.664000000     0.213000000
O     3.348000000    -2.518000000    -2.542000000
H     4.297000000    -2.478000000    -2.663000000
H     3.006000000    -1.815000000    -3.095000000
O     4.427000000     1.845000000    -2.405000000
H     4.898000000     1.496000000    -1.648000000
H     3.719000000     2.366000000    -2.027000000
O    -0.469000000    -1.530000000     6.611000000
H    -0.396000000    -1.315000000     7.541000000
H    -1.025000000    -0.840000000     6.248000000
O     5.293000000     1.723000000     0.227000000
H     5.339000000     0.826000000     0.558000000
H     4.952000000     2.233000000     0.961000000
O    -0.256000000    -4.756000000    -1.425000000
H    -0.689000000    -4.069000000    -1.932000000
H     0.208000000    -5.279000000    -2.077000000
O     5.951000000     1.551000000     5.009000000
H     5.865000000     1.718000000     5.948000000
H     5.241000000     0.942000000     4.808000000
O    -3.540000000     3.237000000     3.521000000
H    -4.361000000     3.120000000     3.044000000
H    -3.756000000     3.852000000     4.222000000
O    -1.842000000     4.344000000     1.529000000
H    -2.618000000     3.856000000     1.804000000
H    -2.149000000     5.245000000     1.429000000
O    -2.036000000    -3.684000000    -3.258000000
H    -2.850000000    -4.188000000    -3.237000000
H    -2.319000000    -2.770000000    -3.249000000
O    -0.838000000    -6.197000000    -4.053000000
H    -1.091000000    -5.359000000    -3.667000000
H     0.119000000    -6.180000000    -4.057000000
O    -4.816000000     0.839000000     1.474000000
H    -5.707000000     0.489000000     1.447000000
H    -4.839000000     1.597000000     0.889000000
O     2.876000000    -1.730000000    -7.604000000
H     2.928000000    -2.406000000    -6.928000000
H     1.968000000    -1.428000000    -7.571000000
O    -5.996000000    -1.291000000    -4.301000000
H    -5.494000000    -1.120000000    -5.097000000
H    -6.476000000    -2.097000000    -4.488000000
O    -0.932000000     2.720000000     4.539000000
H    -1.462000000     3.281000000     3.971000000
H    -1.353000000     1.862000000     4.487000000
O     5.061000000     2.943000000     2.714000000
H     5.412000000     2.655000000     3.557000000
H     5.189000000     3.891000000     2.712000000
O    -2.260000000     0.050000000     5.056000000
H    -3.157000000     0.323000000     5.247000000
H    -2.304000000    -0.316000000     4.173000000
O    -4.653000000    -2.714000000     0.376000000
H    -4.226000000    -2.235000000    -0.334000000
H    -5.583000000    -2.510000000     0.278000000
O     3.609000000     0.653000000     7.455000000
H     3.861000000     0.144000000     6.684000000
H     3.786000000     0.071000000     8.194000000
O    -0.691000000     4.637000000    -3.385000000
H    -0.059000000     3.960000000    -3.144000000
H    -0.497000000     5.366000000    -2.796000000
O     5.079000000    -2.257000000    -0.130000000
H     4.416000000    -2.637000000    -0.707000000
H     5.645000000    -1.754000000    -0.715000000
O    -3.305000000    -2.958000000    -7.212000000
H    -3.965000000    -2.275000000    -7.337000000
H    -2.510000000    -2.482000000    -6.973000000
O     5.314000000    -0.012000000    -4.043000000
H     4.932000000     0.592000000    -3.405000000
H     4.717000000     0.020000000    -4.790000000
O     0.439000000     0.369000000    -7.976000000
H    -0.348000000     0.432000000    -8.517000000
H     0.419000000     1.156000000    -7.432000000
O    -1.091000000    -3.720000000     5.169000000
H    -0.827000000    -3.076000000     5.826000000
H    -1.804000000    -3.296000000     4.691000000
O     0.179000000     2.573000000    -6.228000000
H    -0.565000000     2.271000000    -5.706000000
H     0.909000000     2.602000000    -5.609000000
