158
-3050.33817
C    -1.245000000    -0.400000000    -0.683000000
H    -2.288000000    -0.448000000    -0.984000000
C    -1.091000000     0.116000000     0.591000000
H    -2.011000000     0.417000000     1.086000000
C     0.150000000     0.415000000     1.217000000
H     0.189000000     1.040000000     2.118000000
C     1.295000000     0.090000000     0.457000000
H     2.290000000     0.247000000     0.865000000
C     1.182000000    -0.395000000    -0.880000000
H     2.035000000    -0.628000000    -1.512000000
C    -0.074000000    -0.669000000    -1.491000000
C    -0.358000000    -1.234000000    -2.872000000
O    -1.479000000    -1.632000000    -3.238000000
O     0.483000000    -1.082000000    -3.723000000
O     0.342000000    -1.246000000    -8.249000000
H     0.963000000    -1.154000000    -7.526000000
H    -0.153000000    -2.038000000    -8.040000000
O    -1.536000000    -0.933000000    -5.952000000
H    -1.489000000    -0.018000000    -6.228000000
H    -1.360000000    -0.909000000    -5.011000000
O     2.998000000    -0.223000000     3.734000000
H     2.818000000    -1.156000000     3.613000000
H     2.719000000    -0.039000000     4.631000000
O    -1.799000000     4.981000000     5.379000000
H    -1.995000000     5.398000000     6.218000000
H    -1.680000000     4.056000000     5.594000000
O     3.905000000     5.463000000     0.678000000
H     3.528000000     4.632000000     0.967000000
H     4.077000000     5.337000000    -0.255000000
O    -2.106000000    -5.994000000    -2.505000000
H    -1.911000000    -5.260000000    -3.088000000
H    -2.916000000    -6.367000000    -2.852000000
O    -5.309000000    -3.009000000    -4.636000000
H    -4.810000000    -2.625000000    -5.357000000
H    -4.983000000    -2.563000000    -3.854000000
O    -4.515000000    -1.716000000     3.668000000
H    -4.472000000    -2.210000000     2.850000000
H    -5.226000000    -2.128000000     4.160000000
O     1.353000000     2.356000000    -6.068000000
H     0.643000000     2.980000000    -6.213000000
H     1.172000000     1.640000000    -6.677000000
O     2.616000000    -3.206000000     0.739000000
H     3.174000000    -2.510000000     0.391000000
H     2.937000000    -3.348000000     1.629000000
O     0.392000000    -2.306000000     2.103000000
H     0.789000000    -2.959000000     1.527000000
H     0.486000000    -1.479000000     1.630000000
O    -0.778000000     2.636000000    -0.948000000
H    -0.511000000     1.775000000    -0.625000000
H    -0.966000000     3.141000000    -0.156000000
O    -3.145000000    -3.352000000     1.384000000
H    -3.864000000    -3.093000000     0.807000000
H    -2.548000000    -3.840000000     0.818000000
O     0.977000000     4.893000000     4.140000000
H     0.043000000     4.699000000     4.062000000
H     1.413000000     4.074000000     3.904000000
O     3.853000000    -3.020000000     3.301000000
H     4.767000000    -3.105000000     3.031000000
H     3.803000000    -3.496000000     4.130000000
O     2.035000000     1.125000000    -3.730000000
H     2.004000000     1.340000000    -4.663000000
H     1.272000000     0.566000000    -3.587000000
O     2.299000000     3.232000000     1.565000000
H     1.366000000     3.220000000     1.354000000
H     2.352000000     2.850000000     2.441000000
O    -0.134000000     0.239000000     7.855000000
H    -0.088000000     0.046000000     8.791000000
H    -0.912000000    -0.230000000     7.552000000
O     3.075000000     3.995000000    -3.613000000
H     3.967000000     3.844000000    -3.923000000
H     2.611000000     3.181000000    -3.810000000
O     0.262000000    -1.474000000     4.835000000
H     0.437000000    -1.371000000     3.899000000
H    -0.685000000    -1.367000000     4.915000000
O    -0.741000000     2.252000000     5.408000000
H    -0.273000000     1.817000000     6.121000000
H    -1.092000000     1.535000000     4.880000000
O     2.489000000    -2.743000000    -3.465000000
H     1.919000000    -1.984000000    -3.586000000
H     1.923000000    -3.497000000    -3.634000000
O    -2.884000000     2.445000000    -2.846000000
H    -3.119000000     3.068000000    -2.158000000
H    -2.053000000     2.069000000    -2.555000000
O     1.288000000    -5.484000000     0.154000000
H     1.069000000    -5.318000000    -0.763000000
H     1.848000000    -4.748000000     0.403000000
O     4.210000000     0.507000000    -2.226000000
H     4.960000000     0.906000000    -2.667000000
H     3.447000000     0.848000000    -2.693000000
O     2.193000000    -4.031000000    -6.725000000
H     2.913000000    -4.103000000    -6.099000000
H     2.488000000    -3.372000000    -7.354000000
O    -0.780000000    -5.428000000    -5.983000000
H    -0.806000000    -5.002000000    -6.840000000
H    -1.338000000    -4.883000000    -5.428000000
O    -2.200000000    -0.632000000     4.487000000
H    -2.406000000    -0.437000000     5.401000000
H    -2.932000000    -1.170000000     4.186000000
O    -1.471000000    -5.095000000     0.031000000
H    -1.654000000    -5.259000000    -0.894000000
H    -0.606000000    -5.478000000     0.176000000
O     4.128000000     2.796000000    -0.456000000
H     4.274000000     1.989000000    -0.950000000
H     3.492000000     2.552000000     0.217000000
O    -2.450000000    -3.823000000    -4.460000000
H    -2.027000000    -3.025000000    -4.140000000
H    -3.337000000    -3.547000000    -4.690000000
O     2.547000000     2.397000000     4.257000000
H     2.543000000     1.594000000     3.735000000
H     2.476000000     2.094000000     5.162000000
O    -0.620000000     3.526000000     2.131000000
H    -1.441000000     3.173000000     2.473000000
H    -0.793000000     4.460000000     2.011000000
O    -5.664000000    -3.181000000    -0.244000000
H    -5.992000000    -3.800000000    -0.896000000
H    -5.886000000    -2.320000000    -0.598000000
O    -3.851000000    -2.535000000    -6.792000000
H    -4.309000000    -2.680000000    -7.620000000
H    -2.922000000    -2.559000000    -7.024000000
O    -5.399000000     1.281000000    -1.804000000
H    -5.193000000     2.070000000    -1.304000000
H    -5.246000000     1.528000000    -2.716000000
O     1.825000000    -0.936000000    -6.010000000
H     1.204000000    -0.936000000    -5.282000000
H     2.331000000    -1.740000000    -5.893000000
O     4.661000000     4.587000000     4.313000000
H     5.207000000     3.884000000     3.959000000
H     3.876000000     4.142000000     4.632000000
O    -3.079000000     3.069000000     2.933000000
H    -3.232000000     4.010000000     2.851000000
H    -3.947000000     2.677000000     2.839000000
O     5.307000000    -0.125000000     2.321000000
H     4.932000000    -0.565000000     1.558000000
H     4.574000000    -0.036000000     2.930000000
O    -7.381000000    -0.174000000    -0.311000000
H    -6.725000000     0.168000000    -0.918000000
H    -8.081000000     0.479000000    -0.322000000
O    -5.581000000     1.645000000     2.801000000
H    -5.833000000     1.782000000     1.888000000
H    -5.718000000     0.710000000     2.949000000
O    -4.023000000    -1.539000000    -2.591000000
H    -3.080000000    -1.705000000    -2.595000000
H    -4.097000000    -0.585000000    -2.553000000
O     2.356000000     0.147000000     6.365000000
H     2.287000000    -0.805000000     6.447000000
H     1.569000000     0.481000000     6.795000000
O     4.650000000    -1.119000000    -0.162000000
H     4.300000000    -0.526000000    -0.826000000
H     5.396000000    -1.542000000    -0.587000000
O     5.253000000    -2.357000000    -3.713000000
H     4.304000000    -2.259000000    -3.633000000
H     5.549000000    -2.560000000    -2.826000000
O     0.762000000    -4.982000000    -3.651000000
H     0.834000000    -5.878000000    -3.321000000
H     0.366000000    -5.077000000    -4.517000000
O    -1.912000000    -3.965000000     3.734000000
H    -1.047000000    -3.620000000     3.514000000
H    -2.479000000    -3.660000000     3.026000000
