158
-3053.38332
C    -0.160000000    -1.363000000    -0.521000000
H    -0.282000000    -2.395000000    -0.842000000
C    -1.234000000    -0.520000000    -0.093000000
H    -2.291000000    -0.774000000    -0.080000000
C    -0.875000000     0.756000000     0.343000000
H    -1.607000000     1.408000000     0.616000000
C     0.440000000     1.204000000     0.423000000
H     0.585000000     2.222000000     0.774000000
C     1.513000000     0.328000000     0.078000000
H     2.552000000     0.646000000     0.115000000
C     1.154000000    -0.967000000    -0.361000000
C     2.291000000    -1.871000000    -0.794000000
O     2.011000000    -3.031000000    -1.060000000
O     3.409000000    -1.471000000    -1.056000000
O     3.860000000     0.545000000    -4.725000000
H     2.995000000     0.140000000    -4.677000000
H     4.177000000     0.541000000    -3.821000000
O    -5.042000000     0.057000000     0.797000000
H    -4.351000000     0.169000000     1.451000000
H    -5.615000000     0.814000000     0.923000000
O     2.093000000     2.616000000    -2.726000000
H     2.654000000     2.049000000    -2.197000000
H     1.627000000     3.155000000    -2.088000000
O    -5.340000000    -2.805000000     2.315000000
H    -5.831000000    -2.130000000     1.846000000
H    -4.538000000    -2.916000000     1.804000000
O    -4.462000000     3.157000000    -0.925000000
H    -4.631000000     2.649000000    -1.718000000
H    -5.207000000     2.965000000    -0.355000000
O    -6.778000000     2.671000000     0.357000000
H    -7.312000000     3.058000000    -0.337000000
H    -7.362000000     2.632000000     1.114000000
O    -0.267000000     1.278000000     5.882000000
H     0.153000000     2.033000000     5.470000000
H    -0.545000000     0.729000000     5.149000000
O    -1.142000000     3.336000000     3.226000000
H    -0.949000000     3.936000000     3.946000000
H    -1.649000000     2.632000000     3.630000000
O     1.213000000    -0.313000000    -4.215000000
H     0.549000000    -0.298000000    -4.904000000
H     0.895000000     0.310000000    -3.562000000
O    -1.360000000    -5.753000000     0.168000000
H    -1.216000000    -6.635000000    -0.176000000
H    -0.482000000    -5.424000000     0.359000000
O    -3.339000000     5.237000000     0.351000000
H    -3.574000000     4.358000000     0.055000000
H    -3.736000000     5.821000000    -0.296000000
O     1.145000000     4.530000000    -1.288000000
H     0.731000000     4.994000000    -0.561000000
H     1.151000000     5.165000000    -2.005000000
O     1.558000000     3.595000000     4.972000000
H     1.894000000     3.238000000     4.150000000
H     1.419000000     4.525000000     4.789000000
O    -0.542000000     0.412000000     3.343000000
H    -0.407000000     0.863000000     2.509000000
H    -0.406000000    -0.513000000     3.139000000
O     3.890000000    -5.520000000     1.428000000
H     4.455000000    -6.007000000     0.828000000
H     4.494000000    -5.126000000     2.058000000
O     6.816000000     0.202000000    -0.926000000
H     7.450000000     0.662000000    -1.476000000
H     7.349000000    -0.365000000    -0.368000000
O    -4.789000000     0.098000000    -2.263000000
H    -5.552000000     0.536000000    -2.640000000
H    -4.941000000     0.123000000    -1.318000000
O     0.242000000    -2.253000000     2.760000000
H     0.718000000    -2.910000000     2.252000000
H     0.183000000    -2.628000000     3.639000000
O    -2.588000000     2.228000000    -4.153000000
H    -1.743000000     1.921000000    -3.824000000
H    -2.847000000     2.917000000    -3.541000000
O    -0.420000000     5.165000000     0.953000000
H    -0.125000000     4.872000000     1.816000000
H    -1.370000000     5.047000000     0.973000000
O     1.342000000    -4.540000000     1.038000000
H     2.177000000    -5.004000000     0.969000000
H     1.269000000    -4.055000000     0.216000000
O    -0.430000000    -5.065000000    -4.476000000
H    -0.414000000    -5.992000000    -4.241000000
H     0.393000000    -4.717000000    -4.134000000
O     5.578000000    -3.745000000    -5.052000000
H     6.136000000    -3.690000000    -5.827000000
H     5.788000000    -2.958000000    -4.549000000
O     2.624000000     2.619000000     2.494000000
H     2.503000000     1.670000000     2.455000000
H     2.979000000     2.851000000     1.636000000
O     5.409000000    -2.291000000    -2.553000000
H     6.257000000    -1.917000000    -2.315000000
H     4.787000000    -1.873000000    -1.958000000
O     4.015000000    -4.396000000    -2.207000000
H     3.573000000    -3.870000000    -1.542000000
H     4.592000000    -3.778000000    -2.657000000
O    -2.245000000    -4.163000000    -2.134000000
H    -2.046000000    -4.857000000    -1.506000000
H    -1.611000000    -4.290000000    -2.840000000
O    -3.660000000     4.266000000     4.532000000
H    -3.131000000     4.778000000     3.920000000
H    -3.158000000     4.273000000     5.347000000
O     1.647000000    -5.750000000    -2.260000000
H     2.544000000    -5.567000000    -2.539000000
H     1.282000000    -4.891000000    -2.045000000
O     1.596000000    -3.146000000    -3.755000000
H     2.099000000    -3.039000000    -2.948000000
H     1.146000000    -2.309000000    -3.870000000
O     4.596000000    -0.094000000     4.761000000
H     4.406000000     0.840000000     4.673000000
H     3.915000000    -0.526000000     4.245000000
O    -2.455000000     6.300000000     2.823000000
H    -2.468000000     7.253000000     2.735000000
H    -2.793000000     5.977000000     1.988000000
O     4.255000000     2.962000000     0.261000000
H     5.147000000     3.172000000     0.540000000
H     4.370000000     2.389000000    -0.498000000
O    -2.872000000    -1.508000000    -3.515000000
H    -3.385000000    -0.794000000    -3.138000000
H    -2.872000000    -2.186000000    -2.839000000
O     3.119000000    -7.959000000    -1.446000000
H     2.438000000    -8.573000000    -1.172000000
H     2.648000000    -7.281000000    -1.932000000
O     3.183000000     5.706000000     0.961000000
H     3.565000000     6.126000000     0.190000000
H     2.880000000     4.855000000     0.645000000
O     5.418000000    -6.337000000    -0.584000000
H     5.416000000    -7.289000000    -0.682000000
H     4.736000000    -6.033000000    -1.182000000
O     5.226000000    -3.955000000     3.278000000
H     5.684000000    -3.419000000     3.926000000
H     5.212000000    -3.416000000     2.488000000
O    -3.282000000     1.154000000     6.003000000
H    -3.590000000     0.284000000     6.255000000
H    -2.657000000     1.394000000     6.688000000
O    -0.378000000     1.279000000    -2.473000000
H     0.428000000     1.752000000    -2.268000000
H    -0.730000000     1.023000000    -1.621000000
O    -6.419000000    -0.285000000     4.048000000
H    -6.982000000    -0.232000000     3.276000000
H    -5.529000000    -0.304000000     3.696000000
O    -5.784000000    -3.859000000    -1.781000000
H    -6.530000000    -3.285000000    -1.959000000
H    -5.124000000    -3.282000000    -1.397000000
O     4.380000000     0.846000000    -1.814000000
H     5.260000000     0.861000000    -1.436000000
H     4.073000000    -0.049000000    -1.668000000
O    -3.577000000     0.274000000     3.089000000
H    -2.815000000    -0.254000000     3.324000000
H    -3.787000000     0.761000000     3.885000000
O     2.873000000    -4.905000000    -5.305000000
H     2.286000000    -4.281000000    -4.878000000
H     3.752000000    -4.587000000    -5.098000000
O     2.422000000    -0.332000000     2.833000000
H     1.646000000     0.107000000     3.181000000
H     2.126000000    -1.222000000     2.639000000
O    -2.947000000    -3.561000000     1.062000000
H    -2.034000000    -3.391000000     1.292000000
H    -2.959000000    -4.478000000     0.788000000
O     5.201000000    -2.427000000     1.187000000
H     4.307000000    -2.319000000     0.862000000
H     5.728000000    -1.848000000     0.635000000
