158
-3017.02378
C    -0.256000000    -1.082000000    -0.963000000
H    -0.581000000    -1.893000000    -1.609000000
C    -1.233000000    -0.365000000    -0.305000000
H    -2.297000000    -0.501000000    -0.480000000
C    -0.829000000     0.631000000     0.578000000
H    -1.495000000     1.221000000     1.133000000
C     0.527000000     0.803000000     0.910000000
H     0.610000000     1.605000000     1.639000000
C     1.520000000     0.128000000     0.221000000
H     2.584000000     0.299000000     0.368000000
C     1.111000000    -0.770000000    -0.771000000
C     2.115000000    -1.536000000    -1.604000000
O     1.811000000    -2.618000000    -1.851000000
O     3.223000000    -1.168000000    -1.769000000
O     2.180000000    -0.181000000    -6.075000000
H     2.949000000    -0.403000000    -6.600000000
H     2.537000000     0.099000000    -5.232000000
O     2.001000000     2.309000000    -2.076000000
H     1.690000000     3.122000000    -2.476000000
H     1.355000000     2.115000000    -1.397000000
O     7.165000000    -3.659000000    -3.111000000
H     6.457000000    -3.526000000    -3.741000000
H     7.471000000    -4.551000000    -3.279000000
O    -5.170000000    -0.622000000     3.799000000
H    -5.752000000    -1.358000000     3.611000000
H    -4.579000000    -0.586000000     3.047000000
O    -5.658000000     1.943000000     2.957000000
H    -6.325000000     2.455000000     3.415000000
H    -5.506000000     1.187000000     3.524000000
O    -2.200000000     4.026000000     6.637000000
H    -3.152000000     4.112000000     6.579000000
H    -1.941000000     3.655000000     5.794000000
O     4.572000000     2.055000000     2.991000000
H     5.366000000     2.466000000     2.648000000
H     3.860000000     2.614000000     2.680000000
O    -3.184000000     3.408000000     2.402000000
H    -4.028000000     2.969000000     2.510000000
H    -2.820000000     3.450000000     3.286000000
O    -0.875000000    -0.653000000    -5.460000000
H    -0.780000000    -0.202000000    -4.620000000
H    -0.065000000    -0.455000000    -5.931000000
O    -0.657000000    -2.925000000     2.098000000
H    -0.162000000    -3.429000000     1.452000000
H    -0.141000000    -2.130000000     2.228000000
O    -5.074000000     1.551000000    -0.140000000
H    -5.062000000     0.607000000    -0.296000000
H    -4.810000000     1.646000000     0.776000000
O    -0.464000000     4.204000000    -1.879000000
H    -0.728000000     4.600000000    -2.709000000
H     0.126000000     4.846000000    -1.484000000
O    -0.869000000     2.587000000     4.508000000
H    -0.412000000     2.998000000     3.774000000
H    -1.102000000     1.715000000     4.187000000
O    -0.954000000     0.092000000     3.721000000
H    -0.292000000    -0.483000000     4.105000000
H    -1.455000000    -0.476000000     3.136000000
O     4.052000000    -3.749000000     1.455000000
H     4.684000000    -3.967000000     0.770000000
H     3.830000000    -2.833000000     1.292000000
O    -3.686000000    -0.419000000    -4.534000000
H    -3.159000000     0.140000000    -3.963000000
H    -3.064000000    -0.761000000    -5.175000000
O     5.353000000     2.483000000    -1.256000000
H     5.418000000     3.435000000    -1.187000000
H     4.535000000     2.332000000    -1.730000000
O    -4.649000000    -1.227000000     0.783000000
H    -4.401000000    -2.109000000     0.506000000
H    -5.435000000    -1.355000000     1.315000000
O     8.238000000    -1.992000000    -1.328000000
H     7.868000000    -2.650000000    -1.917000000
H     8.016000000    -1.154000000    -1.734000000
O     5.104000000     1.783000000    -5.229000000
H     5.156000000     0.871000000    -5.516000000
H     4.628000000     1.746000000    -4.399000000
O    -7.041000000     1.834000000    -2.634000000
H    -6.312000000     1.852000000    -2.014000000
H    -6.826000000     2.511000000    -3.276000000
O    -3.611000000     2.535000000    -2.635000000
H    -4.127000000     3.274000000    -2.957000000
H    -3.920000000     2.399000000    -1.739000000
O     1.468000000    -1.612000000     3.785000000
H     2.187000000    -1.038000000     3.521000000
H     1.521000000    -1.639000000     4.740000000
O    -1.597000000    -5.545000000    -3.015000000
H    -0.968000000    -6.141000000    -3.422000000
H    -1.070000000    -4.797000000    -2.734000000
O     0.432000000     4.136000000     2.514000000
H     0.628000000     5.068000000     2.603000000
H     1.199000000     3.770000000     2.074000000
O     4.487000000    -2.697000000    -3.437000000
H     3.982000000    -3.297000000    -3.986000000
H     3.826000000    -2.200000000    -2.954000000
O     3.226000000    -4.969000000    -1.793000000
H     2.694000000    -4.193000000    -1.971000000
H     2.647000000    -5.548000000    -1.298000000
O     5.714000000    -4.084000000    -0.962000000
H     6.370000000    -3.851000000    -1.619000000
H     4.898000000    -4.161000000    -1.456000000
O    -3.974000000    -4.353000000    -3.684000000
H    -3.617000000    -3.950000000    -4.475000000
H    -3.297000000    -4.970000000    -3.404000000
O     4.895000000    -1.080000000    -5.982000000
H     4.863000000    -1.773000000    -5.323000000
H     5.333000000    -1.482000000    -6.732000000
O     0.266000000    -4.133000000    -0.207000000
H     0.948000000    -4.661000000     0.209000000
H     0.740000000    -3.560000000    -0.809000000
O     1.906000000    -2.976000000    -4.690000000
H     1.774000000    -2.712000000    -3.779000000
H     2.041000000    -2.154000000    -5.160000000
O    -3.174000000     6.231000000     3.378000000
H    -3.284000000     7.150000000     3.619000000
H    -2.753000000     6.257000000     2.518000000
O     2.885000000     3.293000000     1.107000000
H     3.340000000     3.830000000     0.458000000
H     2.643000000     2.497000000     0.633000000
O    -1.150000000     1.399000000    -3.432000000
H    -0.516000000     2.080000000    -3.207000000
H    -1.973000000     1.703000000    -3.049000000
O     1.837000000    -5.875000000     1.165000000
H     2.064000000    -6.702000000     1.590000000
H     2.035000000    -5.206000000     1.820000000
O     1.151000000     5.766000000    -0.216000000
H     1.825000000     6.099000000    -0.809000000
H     1.372000000     6.143000000     0.635000000
O     4.970000000    -1.257000000     0.063000000
H     4.326000000    -1.046000000    -0.613000000
H     5.310000000    -2.115000000    -0.189000000
O    -1.963000000     5.303000000     0.857000000
H    -1.138000000     4.932000000     0.546000000
H    -2.342000000     4.616000000     1.406000000
O    -3.378000000     6.036000000    -1.402000000
H    -4.077000000     5.531000000    -1.816000000
H    -2.842000000     5.382000000    -0.955000000
O    -7.994000000     0.573000000     2.111000000
H    -7.719000000     1.441000000     1.814000000
H    -8.709000000     0.745000000     2.724000000
O    -5.952000000     5.098000000     1.824000000
H    -6.283000000     4.346000000     1.334000000
H    -5.049000000     5.202000000     1.523000000
O     6.682000000     2.167000000     1.273000000
H     7.536000000     2.056000000     0.854000000
H     6.060000000     2.194000000     0.545000000
O     6.928000000     0.467000000    -2.041000000
H     6.217000000     0.147000000    -2.596000000
H     6.543000000     1.199000000    -1.557000000
O     3.323000000     0.650000000    -3.674000000
H     2.849000000     1.303000000    -3.160000000
H     3.490000000    -0.064000000    -3.058000000
O    -4.023000000    -3.755000000    -0.653000000
H    -3.645000000    -4.124000000    -1.451000000
H    -3.559000000    -4.197000000     0.058000000
O     1.293000000     1.962000000     6.153000000
H     0.660000000     2.446000000     5.623000000
H     1.094000000     1.042000000     5.983000000
O     4.312000000    -0.806000000     2.658000000
H     4.512000000    -0.990000000     1.740000000
H     4.387000000     0.145000000     2.734000000
