158
-3055.45839
C    -0.037000000    -1.229000000    -0.877000000
H    -0.172000000    -2.190000000    -1.367000000
C    -1.147000000    -0.448000000    -0.493000000
H    -2.178000000    -0.743000000    -0.669000000
C    -0.960000000     0.656000000     0.282000000
H    -1.828000000     1.154000000     0.680000000
C     0.291000000     1.088000000     0.726000000
H     0.358000000     1.912000000     1.432000000
C     1.395000000     0.415000000     0.231000000
H     2.382000000     0.723000000     0.567000000
C     1.289000000    -0.748000000    -0.553000000
C     2.557000000    -1.526000000    -0.835000000
O     2.378000000    -2.612000000    -1.369000000
O     3.654000000    -0.921000000    -0.777000000
O     3.275000000    -0.443000000    -4.173000000
H     3.077000000    -1.254000000    -4.642000000
H     4.032000000    -0.660000000    -3.629000000
O     0.179000000    -5.771000000    -2.600000000
H     0.350000000    -4.892000000    -2.937000000
H     1.031000000    -6.080000000    -2.291000000
O     1.066000000     1.977000000    -2.334000000
H     0.745000000     2.878000000    -2.380000000
H     0.951000000     1.729000000    -1.416000000
O    -4.010000000    -1.793000000     4.890000000
H    -4.399000000    -1.512000000     4.062000000
H    -3.234000000    -2.291000000     4.633000000
O    -4.452000000     0.679000000     2.570000000
H    -5.347000000     0.673000000     2.231000000
H    -4.479000000     1.283000000     3.311000000
O    -2.443000000     0.473000000     4.865000000
H    -2.853000000    -0.390000000     4.913000000
H    -1.781000000     0.386000000     4.179000000
O     6.067000000     2.584000000     1.852000000
H     6.900000000     2.518000000     1.386000000
H     5.514000000     3.116000000     1.280000000
O    -1.114000000     4.124000000     2.173000000
H    -1.800000000     3.936000000     1.533000000
H    -1.407000000     3.688000000     2.973000000
O    -0.421000000    -0.379000000    -3.788000000
H    -1.326000000    -0.107000000    -3.636000000
H     0.086000000     0.431000000    -3.731000000
O     0.911000000    -3.191000000     2.521000000
H     0.773000000    -3.745000000     1.753000000
H     1.663000000    -2.646000000     2.291000000
O    -3.285000000     3.293000000     0.332000000
H    -3.871000000     2.539000000     0.398000000
H    -3.810000000     4.032000000     0.640000000
O     1.057000000     4.014000000    -0.255000000
H     0.173000000     4.249000000    -0.537000000
H     1.464000000     4.848000000    -0.023000000
O     1.053000000     3.228000000     4.097000000
H     1.989000000     3.151000000     3.909000000
H     0.640000000     3.279000000     3.235000000
O    -0.746000000    -0.588000000     3.007000000
H    -0.539000000    -0.588000000     2.073000000
H     0.105000000    -0.535000000     3.441000000
O     4.940000000    -4.623000000     1.667000000
H     5.655000000    -4.516000000     1.039000000
H     4.543000000    -3.754000000     1.728000000
O    -4.866000000    -0.122000000    -4.577000000
H    -4.953000000     0.178000000    -3.672000000
H    -4.154000000     0.406000000    -4.938000000
O     6.360000000     2.673000000    -1.388000000
H     6.268000000     3.447000000    -0.833000000
H     5.465000000     2.457000000    -1.649000000
O    -5.006000000    -0.111000000    -1.524000000
H    -5.730000000     0.514000000    -1.559000000
H    -5.424000000    -0.953000000    -1.346000000
O    -5.633000000     4.453000000    -2.683000000
H    -4.845000000     3.920000000    -2.791000000
H    -5.444000000     5.260000000    -3.162000000
O     8.043000000    -1.833000000    -0.518000000
H     7.843000000    -2.303000000    -1.328000000
H     8.023000000    -0.909000000    -0.767000000
O    -6.789000000     1.723000000    -2.177000000
H    -6.566000000     2.615000000    -1.909000000
H    -7.507000000     1.834000000    -2.801000000
O    -1.491000000     4.678000000    -1.119000000
H    -1.918000000     5.519000000    -0.951000000
H    -2.118000000     4.025000000    -0.808000000
O     3.334000000    -1.785000000     2.486000000
H     3.634000000    -1.627000000     3.382000000
H     4.010000000    -1.391000000     1.935000000
O    -1.789000000    -4.576000000    -1.230000000
H    -1.225000000    -5.219000000    -1.660000000
H    -1.186000000    -3.907000000    -0.905000000
O     3.589000000     3.381000000     3.035000000
H     4.482000000     3.037000000     3.028000000
H     3.415000000     3.614000000     2.124000000
O     5.546000000    -1.572000000    -2.902000000
H     5.708000000    -2.355000000    -3.427000000
H     5.010000000    -1.880000000    -2.171000000
O     2.864000000    -6.588000000    -2.329000000
H     3.073000000    -6.893000000    -1.446000000
H     2.596000000    -7.378000000    -2.798000000
O     4.544000000    -4.258000000    -1.414000000
H     3.903000000    -3.554000000    -1.323000000
H     4.090000000    -4.931000000    -1.923000000
O    -4.122000000    -3.297000000    -2.375000000
H    -4.572000000    -3.153000000    -1.542000000
H    -3.221000000    -3.503000000    -2.127000000
O     6.798000000     0.663000000    -4.196000000
H     6.773000000    -0.092000000    -3.608000000
H     6.018000000     0.567000000    -4.742000000
O     1.110000000    -4.366000000     0.114000000
H     1.671000000    -5.136000000     0.200000000
H     1.545000000    -3.824000000    -0.544000000
O     1.061000000    -2.746000000    -3.905000000
H     1.587000000    -2.505000000    -3.143000000
H     0.505000000    -1.983000000    -4.064000000
O    -7.198000000    -1.385000000     0.488000000
H    -7.097000000    -0.456000000     0.696000000
H    -8.077000000    -1.453000000     0.116000000
O     4.062000000     3.835000000     0.436000000
H     4.620000000     4.561000000     0.157000000
H     3.709000000     3.476000000    -0.378000000
O    -2.705000000     1.229000000    -2.147000000
H    -3.421000000     0.598000000    -2.076000000
H    -2.007000000     0.862000000    -1.604000000
O     3.318000000    -6.750000000     0.502000000
H     2.908000000    -7.144000000     1.272000000
H     3.894000000    -6.073000000     0.858000000
O     5.608000000    -1.481000000     0.795000000
H     4.935000000    -1.319000000     0.135000000
H     6.434000000    -1.412000000     0.316000000
O     0.461000000     6.379000000     2.474000000
H     0.040000000     5.523000000     2.546000000
H     0.944000000     6.340000000     1.648000000
O     6.800000000    -5.079000000    -0.371000000
H     6.559000000    -6.005000000    -0.339000000
H     6.126000000    -4.675000000    -0.919000000
O    -4.461000000     2.721000000     4.336000000
H    -3.700000000     3.069000000     4.801000000
H    -5.111000000     3.422000000     4.384000000
O    -3.315000000     3.342000000    -3.622000000
H    -2.970000000     2.722000000    -2.979000000
H    -2.703000000     4.077000000    -3.599000000
O    -7.069000000     1.489000000     1.636000000
H    -7.014000000     2.365000000     1.254000000
H    -7.497000000     1.623000000     2.482000000
O    -3.290000000     6.102000000     0.788000000
H    -3.398000000     6.830000000     0.175000000
H    -2.807000000     6.478000000     1.523000000
O    -4.597000000    -3.234000000     0.156000000
H    -5.444000000    -3.096000000     0.580000000
H    -3.960000000    -2.869000000     0.770000000
O     3.834000000     1.736000000    -1.887000000
H     2.932000000     1.766000000    -2.205000000
H     3.939000000     0.848000000    -1.546000000
O    -2.942000000    -1.880000000     1.812000000
H    -2.096000000    -1.973000000     2.252000000
H    -3.025000000    -0.940000000     1.650000000
O     2.857000000    -3.046000000    -6.045000000
H     2.015000000    -3.028000000    -5.590000000
H     3.320000000    -3.792000000    -5.663000000
O     5.555000000     0.538000000     3.433000000
H     5.401000000     1.289000000     2.860000000
H     5.694000000    -0.195000000     2.833000000
