158
-3092.39893
C     0.834000000    -1.238000000     0.011000000
H     1.349000000    -2.191000000    -0.082000000
C    -0.549000000    -1.043000000    -0.410000000
H    -1.109000000    -1.910000000    -0.751000000
C    -1.215000000     0.161000000    -0.458000000
H    -2.207000000     0.344000000    -0.897000000
C    -0.503000000     1.227000000     0.130000000
H    -1.021000000     2.161000000     0.331000000
C     0.829000000     1.069000000     0.569000000
H     1.208000000     1.968000000     1.050000000
C     1.506000000    -0.171000000     0.538000000
C     2.962000000    -0.347000000     0.930000000
O     3.416000000    -1.455000000     1.174000000
O     3.698000000     0.638000000     1.063000000
O    -2.628000000     4.562000000     0.105000000
H    -1.831000000     4.381000000     0.604000000
H    -2.828000000     5.477000000     0.298000000
O    -3.894000000    -0.039000000    -3.192000000
H    -3.609000000     0.832000000    -2.917000000
H    -4.254000000     0.092000000    -4.069000000
O     2.095000000     1.627000000    -3.664000000
H     2.841000000     1.848000000    -3.107000000
H     1.948000000     0.694000000    -3.510000000
O    -3.140000000     2.566000000    -2.090000000
H    -2.991000000     3.101000000    -1.310000000
H    -4.036000000     2.774000000    -2.355000000
O    -1.546000000    -0.923000000     2.464000000
H    -1.483000000    -0.708000000     1.533000000
H    -1.204000000    -0.149000000     2.912000000
O    -3.328000000     5.053000000     3.593000000
H    -2.831000000     5.499000000     4.278000000
H    -2.742000000     4.363000000     3.282000000
O    -0.692000000     4.203000000    -2.444000000
H     0.046000000     4.044000000    -1.856000000
H    -1.365000000     3.587000000    -2.155000000
O     3.300000000    -3.721000000     4.573000000
H     2.393000000    -3.416000000     4.561000000
H     3.706000000    -3.295000000     3.818000000
O    -0.581000000    -0.131000000    -5.030000000
H    -0.282000000     0.773000000    -4.931000000
H    -0.223000000    -0.587000000    -4.268000000
O     0.602000000    -3.419000000    -2.980000000
H     0.854000000    -3.935000000    -2.214000000
H    -0.329000000    -3.237000000    -2.850000000
O     3.715000000     2.101000000    -1.556000000
H     4.429000000     2.738000000    -1.593000000
H     3.835000000     1.656000000    -0.717000000
O     3.719000000    -5.601000000     2.670000000
H     3.767000000    -5.601000000     1.714000000
H     2.918000000    -5.117000000     2.870000000
O     1.550000000     3.413000000     3.908000000
H     2.300000000     3.768000000     3.430000000
H     1.769000000     3.547000000     4.830000000
O     1.110000000    -2.112000000     4.905000000
H     1.679000000    -1.559000000     5.440000000
H     0.231000000    -1.760000000     5.048000000
O     0.194000000     2.895000000    -5.058000000
H    -0.161000000     3.522000000    -4.427000000
H     0.840000000     2.394000000    -4.560000000
O    -6.603000000    -3.063000000    -3.431000000
H    -5.774000000    -2.843000000    -3.007000000
H    -6.626000000    -4.020000000    -3.431000000
O    -3.350000000     4.173000000    -4.660000000
H    -2.880000000     3.765000000    -3.933000000
H    -3.004000000     5.065000000    -4.698000000
O     0.449000000     4.657000000     1.395000000
H     0.797000000     4.256000000     0.599000000
H     1.223000000     4.861000000     1.919000000
O     0.554000000    -5.003000000    -0.055000000
H    -0.392000000    -4.923000000    -0.175000000
H     0.749000000    -4.437000000     0.692000000
O     3.678000000    -4.914000000    -2.464000000
H     4.594000000    -5.066000000    -2.233000000
H     3.438000000    -5.668000000    -3.003000000
O     6.984000000     2.753000000     2.982000000
H     6.568000000     2.453000000     3.791000000
H     7.382000000     1.966000000     2.612000000
O     3.859000000    -2.037000000    -1.637000000
H     3.932000000    -2.985000000    -1.745000000
H     3.721000000    -1.913000000    -0.698000000
O    -4.383000000    -1.884000000     3.627000000
H    -3.973000000    -1.115000000     4.024000000
H    -4.883000000    -1.535000000     2.889000000
O     5.042000000    -2.233000000     2.975000000
H     5.835000000    -2.482000000     2.501000000
H     4.380000000    -2.122000000     2.293000000
O    -4.595000000     2.385000000     1.296000000
H    -4.632000000     2.167000000     2.227000000
H    -4.098000000     3.202000000     1.260000000
O    -4.617000000    -0.397000000    -0.365000000
H    -4.827000000     0.529000000    -0.244000000
H    -4.251000000    -0.446000000    -1.248000000
O     4.358000000     0.310000000     3.640000000
H     4.076000000     0.635000000     2.785000000
H     4.638000000    -0.590000000     3.473000000
O     1.645000000     3.841000000    -0.987000000
H     2.158000000     3.103000000    -1.317000000
H     1.867000000     4.567000000    -1.571000000
O     4.629000000     3.177000000     1.254000000
H     5.428000000     2.973000000     1.740000000
H     4.203000000     2.329000000     1.126000000
O     1.758000000    -0.944000000    -3.253000000
H     1.380000000    -1.795000000    -3.031000000
H     2.703000000    -1.093000000    -3.246000000
O    -6.252000000    -1.427000000     1.505000000
H    -5.630000000    -1.352000000     0.782000000
H    -7.049000000    -1.007000000     1.180000000
O     5.930000000     2.299000000     5.399000000
H     5.487000000     1.719000000     4.779000000
H     5.557000000     2.071000000     6.250000000
O     5.259000000     4.293000000    -1.034000000
H     5.305000000     5.247000000    -0.969000000
H     5.034000000     4.003000000    -0.150000000
O     3.192000000    -6.119000000    -0.059000000
H     2.264000000    -5.890000000    -0.002000000
H     3.465000000    -5.796000000    -0.918000000
O    -1.898000000    -3.576000000     3.069000000
H    -2.365000000    -3.476000000     3.899000000
H    -1.742000000    -2.680000000     2.773000000
O     3.253000000     5.289000000     2.323000000
H     3.811000000     4.555000000     2.068000000
H     3.815000000     5.838000000     2.871000000
O     2.622000000     0.050000000     6.007000000
H     2.917000000     0.289000000     5.128000000
H     3.333000000    -0.484000000     6.362000000
O    -6.798000000     1.850000000     0.041000000
H    -6.094000000     1.976000000     0.678000000
H    -7.590000000     2.125000000     0.503000000
O    -1.639000000     3.062000000     2.794000000
H    -0.835000000     3.548000000     2.609000000
H    -1.342000000     2.172000000     2.987000000
O     6.613000000    -0.623000000    -1.673000000
H     6.590000000    -0.202000000    -2.532000000
H     5.919000000    -1.281000000    -1.709000000
O     0.154000000     1.137000000     3.958000000
H     0.589000000     1.967000000     4.156000000
H     0.617000000     0.491000000     4.492000000
O    -7.920000000    -0.446000000    -0.478000000
H    -7.252000000     0.203000000    -0.257000000
H    -7.902000000    -0.493000000    -1.434000000
O     1.375000000    -3.450000000     2.067000000
H     1.956000000    -2.775000000     1.717000000
H     0.994000000    -3.056000000     2.852000000
O    -2.107000000    -2.239000000    -3.363000000
H    -2.710000000    -1.496000000    -3.391000000
H    -2.112000000    -2.584000000    -4.256000000
O    -3.150000000     0.686000000     4.526000000
H    -3.334000000     1.125000000     3.696000000
H    -3.774000000     1.068000000     5.143000000
O    -5.818000000     2.701000000    -2.286000000
H    -6.526000000     2.380000000    -2.845000000
H    -6.045000000     2.393000000    -1.409000000
O    -2.034000000    -5.233000000     0.823000000
H    -2.723000000    -4.908000000     0.243000000
H    -2.087000000    -4.671000000     1.596000000
O     6.385000000     0.514000000     0.760000000
H     6.587000000     0.131000000    -0.093000000
H     5.459000000     0.313000000     0.899000000
