158
-3041.67314
C    -0.152000000    -1.428000000    -0.353000000
H    -0.283000000    -2.432000000    -0.748000000
C    -1.124000000    -0.470000000    -0.487000000
H    -2.053000000    -0.814000000    -0.935000000
C    -0.915000000     0.837000000    -0.051000000
H    -1.673000000     1.612000000    -0.100000000
C     0.336000000     1.158000000     0.484000000
H     0.603000000     2.152000000     0.835000000
C     1.298000000     0.194000000     0.557000000
H     2.252000000     0.478000000     0.994000000
C     1.122000000    -1.087000000     0.187000000
C     2.207000000    -2.139000000     0.227000000
O     1.855000000    -3.340000000     0.096000000
O     3.365000000    -1.892000000     0.356000000
O     5.473000000    -0.354000000    -0.030000000
H     4.776000000    -0.991000000     0.132000000
H     5.817000000    -0.149000000     0.839000000
O    -2.212000000    -0.623000000    -3.723000000
H    -1.322000000    -0.295000000    -3.848000000
H    -2.774000000     0.065000000    -4.080000000
O     4.913000000    -1.261000000    -2.787000000
H     5.079000000    -0.737000000    -2.003000000
H     4.473000000    -2.046000000    -2.462000000
O    -5.044000000     1.817000000    -1.302000000
H    -5.125000000     1.346000000    -0.473000000
H    -4.614000000     2.640000000    -1.069000000
O    -0.659000000    -0.230000000     2.976000000
H    -0.594000000     0.184000000     2.116000000
H    -0.039000000    -0.958000000     2.939000000
O    -2.610000000     4.576000000     1.969000000
H    -2.408000000     4.263000000     2.851000000
H    -2.645000000     5.528000000     2.055000000
O     5.234000000    -4.418000000     0.965000000
H     4.519000000    -3.811000000     0.773000000
H     5.886000000    -4.242000000     0.287000000
O    -0.394000000    -4.911000000     3.240000000
H    -0.812000000    -4.078000000     3.455000000
H    -0.527000000    -5.009000000     2.297000000
O    -3.521000000     3.794000000    -0.443000000
H    -3.485000000     4.642000000    -0.885000000
H    -3.187000000     3.968000000     0.437000000
O     4.627000000     2.232000000    -1.328000000
H     4.086000000     1.958000000    -2.069000000
H     4.945000000     1.413000000    -0.948000000
O     2.409000000    -6.045000000    -3.037000000
H     3.253000000    -6.493000000    -3.097000000
H     1.896000000    -6.404000000    -3.761000000
O     0.997000000    -8.265000000     1.743000000
H     1.189000000    -7.610000000     1.071000000
H     1.799000000    -8.784000000     1.806000000
O    -2.720000000    -4.293000000     1.038000000
H    -2.956000000    -3.475000000     0.600000000
H    -3.430000000    -4.445000000     1.662000000
O     2.545000000    -5.204000000     2.060000000
H     1.671000000    -5.256000000     2.447000000
H     2.447000000    -4.596000000     1.328000000
O     3.084000000     3.498000000     0.637000000
H     3.261000000     2.862000000    -0.057000000
H     3.345000000     3.051000000     1.442000000
O    -0.838000000     5.306000000    -1.543000000
H    -1.180000000     4.412000000    -1.546000000
H    -0.026000000     5.252000000    -2.047000000
O    -2.608000000    -5.778000000    -4.365000000
H    -2.425000000    -5.173000000    -3.647000000
H    -1.856000000    -6.369000000    -4.378000000
O     4.387000000    -7.005000000     0.448000000
H     3.466000000    -6.795000000     0.291000000
H     4.735000000    -6.236000000     0.899000000
O     4.283000000     1.840000000     2.690000000
H     4.390000000     0.911000000     2.896000000
H     5.159000000     2.212000000     2.795000000
O     3.748000000    -3.959000000    -1.890000000
H     3.263000000    -4.657000000    -2.330000000
H     3.118000000    -3.578000000    -1.279000000
O    -3.017000000     1.693000000    -4.878000000
H    -3.252000000     2.508000000    -4.435000000
H    -2.098000000     1.809000000    -5.121000000
O     1.330000000    -2.221000000     3.462000000
H     1.001000000    -2.894000000     4.058000000
H     2.075000000    -1.836000000     3.923000000
O    -1.039000000     7.491000000     0.163000000
H    -1.133000000     6.779000000    -0.470000000
H    -0.093000000     7.616000000     0.245000000
O     0.753000000    -2.804000000    -3.579000000
H     0.725000000    -3.178000000    -4.459000000
H     0.661000000    -3.557000000    -2.995000000
O    -5.790000000    -0.621000000     0.764000000
H    -6.697000000    -0.508000000     0.482000000
H    -5.762000000    -0.239000000     1.641000000
O     3.346000000    -1.056000000     5.686000000
H     3.940000000    -1.114000000     4.938000000
H     3.923000000    -0.968000000     6.444000000
O     0.827000000     4.640000000    -3.893000000
H     0.941000000     4.018000000    -3.174000000
H     1.534000000     4.430000000    -4.504000000
O     1.784000000    -6.673000000    -0.450000000
H     1.046000000    -6.076000000    -0.327000000
H     2.073000000    -6.514000000    -1.349000000
O     7.731000000    -1.254000000    -2.281000000
H     6.808000000    -1.327000000    -2.522000000
H     8.205000000    -1.578000000    -3.047000000
O    -1.373000000    -7.056000000    -1.234000000
H    -0.915000000    -6.281000000    -0.908000000
H    -2.300000000    -6.861000000    -1.099000000
O     6.936000000    -0.837000000     2.478000000
H     7.642000000    -0.191000000     2.470000000
H     7.365000000    -1.659000000     2.713000000
O     6.572000000    -4.201000000    -2.125000000
H     6.781000000    -3.970000000    -3.031000000
H     5.621000000    -4.313000000    -2.121000000
O    -6.725000000     4.090000000    -1.429000000
H    -6.196000000     3.316000000    -1.237000000
H    -6.145000000     4.829000000    -1.247000000
O    -4.392000000    -2.610000000    -0.403000000
H    -4.718000000    -1.781000000    -0.054000000
H    -5.175000000    -3.149000000    -0.512000000
O    -2.269000000     6.566000000    -4.114000000
H    -1.571000000     6.736000000    -4.746000000
H    -1.818000000     6.201000000    -3.352000000
O    -0.877000000     1.563000000     4.881000000
H    -1.816000000     1.650000000     4.717000000
H    -0.602000000     0.837000000     4.320000000
O     3.580000000     5.888000000    -0.671000000
H     3.548000000     4.973000000    -0.392000000
H     3.896000000     5.852000000    -1.574000000
O    -2.749000000    -2.416000000     3.664000000
H    -2.888000000    -2.572000000     2.730000000
H    -2.165000000    -1.658000000     3.696000000
O    -5.405000000     1.188000000     2.857000000
H    -5.185000000     0.521000000     3.507000000
H    -4.940000000     1.971000000     3.151000000
O    -2.758000000    -3.304000000    -2.942000000
H    -2.542000000    -2.373000000    -2.994000000
H    -3.278000000    -3.385000000    -2.143000000
O     1.021000000     5.293000000     2.094000000
H     0.245000000     5.106000000     1.565000000
H     1.704000000     4.736000000     1.722000000
O     1.036000000     2.366000000    -2.355000000
H     0.900000000     1.999000000    -1.482000000
H     0.930000000     1.621000000    -2.947000000
O    -5.446000000     1.046000000    -3.826000000
H    -4.653000000     0.719000000    -4.250000000
H    -5.165000000     1.283000000    -2.942000000
O     4.772000000    -6.141000000     3.427000000
H     4.181000000    -6.754000000     3.865000000
H     4.226000000    -5.709000000     2.770000000
O    -0.152000000    -4.946000000    -0.012000000
H     0.449000000    -4.215000000    -0.155000000
H    -0.987000000    -4.531000000     0.204000000
O     0.866000000    -0.093000000    -4.193000000
H     1.783000000     0.147000000    -4.056000000
H     0.795000000    -0.979000000    -3.838000000
O     7.225000000    -3.479000000     2.769000000
H     8.032000000    -3.838000000     2.400000000
H     6.533000000    -3.803000000     2.192000000
O     4.300000000    -0.743000000     3.076000000
H     3.937000000    -1.060000000     2.249000000
H     5.223000000    -0.992000000     3.044000000
