158
-3027.49634
C     0.475000000    -1.255000000     0.496000000
H     0.746000000    -2.270000000     0.773000000
C    -0.421000000    -1.176000000    -0.562000000
H    -0.786000000    -2.066000000    -1.068000000
C    -0.835000000     0.101000000    -0.852000000
H    -1.575000000     0.261000000    -1.634000000
C    -0.349000000     1.218000000    -0.195000000
H    -0.690000000     2.212000000    -0.471000000
C     0.681000000     1.064000000     0.742000000
H     0.936000000     1.973000000     1.281000000
C     1.103000000    -0.156000000     1.105000000
C     2.077000000    -0.357000000     2.277000000
O     2.095000000    -1.458000000     2.886000000
O     2.823000000     0.562000000     2.656000000
O    -3.848000000     4.373000000     1.038000000
H    -3.201000000     3.674000000     0.945000000
H    -3.357000000     5.178000000     0.876000000
O    -5.813000000    -1.530000000    -5.156000000
H    -6.119000000    -0.642000000    -4.970000000
H    -5.179000000    -1.714000000    -4.463000000
O     6.682000000     2.200000000    -0.609000000
H     6.809000000     1.868000000    -1.497000000
H     6.102000000     1.561000000    -0.195000000
O    -4.473000000     3.055000000    -6.427000000
H    -5.362000000     2.745000000    -6.599000000
H    -4.383000000     3.011000000    -5.475000000
O    -3.756000000     2.182000000    -3.841000000
H    -3.320000000     2.877000000    -3.348000000
H    -4.440000000     1.864000000    -3.252000000
O    -2.534000000     1.397000000     2.407000000
H    -2.014000000     0.805000000     1.866000000
H    -2.115000000     1.367000000     3.267000000
O     6.779000000    -1.793000000     3.803000000
H     5.960000000    -2.177000000     3.489000000
H     6.525000000    -1.287000000     4.576000000
O    -2.489000000     4.375000000    -2.599000000
H    -1.836000000     4.455000000    -3.294000000
H    -2.171000000     4.951000000    -1.903000000
O     2.238000000    -3.504000000     6.144000000
H     1.613000000    -4.166000000     6.439000000
H     1.721000000    -2.913000000     5.596000000
O     0.128000000     0.853000000    -6.039000000
H     0.542000000     1.644000000    -6.383000000
H     0.322000000     0.870000000    -5.101000000
O    -1.695000000    -4.596000000    -2.715000000
H    -2.369000000    -4.707000000    -2.044000000
H    -1.793000000    -3.689000000    -3.005000000
O     2.755000000     4.290000000    -0.098000000
H     3.342000000     3.687000000    -0.555000000
H     3.228000000     4.526000000     0.700000000
O    -0.438000000    -4.805000000     2.128000000
H    -0.117000000    -4.342000000     2.902000000
H     0.300000000    -5.347000000     1.850000000
O    -0.037000000     4.497000000     4.471000000
H     0.723000000     4.287000000     3.929000000
H     0.333000000     4.728000000     5.323000000
O     3.560000000    -5.077000000     3.252000000
H     3.414000000    -6.017000000     3.361000000
H     2.685000000    -4.713000000     3.118000000
O    -1.307000000    -0.930000000     6.630000000
H    -0.566000000    -1.291000000     6.144000000
H    -1.968000000    -0.752000000     5.962000000
O    -1.215000000     4.819000000    -4.806000000
H    -1.611000000     4.589000000    -5.646000000
H    -0.272000000     4.775000000    -4.966000000
O    -2.906000000    -6.471000000    -0.107000000
H    -2.953000000    -5.535000000     0.090000000
H    -2.895000000    -6.896000000     0.751000000
O     5.302000000    -2.549000000    -1.698000000
H     4.374000000    -2.550000000    -1.462000000
H     5.762000000    -2.458000000    -0.864000000
O    -6.261000000    -2.543000000    -2.173000000
H    -5.306000000    -2.490000000    -2.204000000
H    -6.457000000    -3.456000000    -2.381000000
O     1.705000000    -6.623000000     1.362000000
H     1.521000000    -6.579000000     0.424000000
H     1.466000000    -7.516000000     1.611000000
O    -0.513000000     4.583000000     1.440000000
H     0.171000000     5.149000000     1.798000000
H    -1.212000000     4.610000000     2.093000000
O    -2.602000000    -3.569000000     0.508000000
H    -3.231000000    -3.228000000     1.144000000
H    -1.750000000    -3.453000000     0.927000000
O     4.723000000     4.254000000     1.803000000
H     5.203000000     3.778000000     2.481000000
H     5.403000000     4.587000000     1.217000000
O     2.559000000    -2.186000000    -2.158000000
H     2.509000000    -2.034000000    -3.102000000
H     1.969000000    -2.923000000    -2.003000000
O    -0.933000000     7.542000000    -2.154000000
H    -1.206000000     7.637000000    -3.067000000
H    -0.797000000     6.601000000    -2.042000000
O     4.439000000    -2.602000000     2.383000000
H     4.274000000    -3.433000000     2.829000000
H     3.626000000    -2.107000000     2.491000000
O    -5.529000000     2.917000000    -0.588000000
H    -5.380000000     2.219000000    -1.226000000
H    -4.996000000     3.647000000    -0.903000000
O     1.067000000    -2.005000000    -4.577000000
H     0.670000000    -1.310000000    -4.051000000
H     1.883000000    -1.624000000    -4.900000000
O    -3.738000000    -1.392000000    -1.574000000
H    -3.243000000    -1.493000000    -0.761000000
H    -3.227000000    -1.872000000    -2.226000000
O     3.157000000    -0.232000000     5.260000000
H     3.073000000     0.127000000     4.377000000
H     3.373000000    -1.155000000     5.124000000
O     0.395000000     4.798000000    -1.532000000
H     1.255000000     4.928000000    -1.131000000
H    -0.176000000     4.560000000    -0.802000000
O     2.322000000     2.884000000     3.819000000
H     3.070000000     3.435000000     4.047000000
H     2.700000000     2.161000000     3.318000000
O     0.842000000     0.549000000    -3.240000000
H     1.766000000     0.556000000    -2.988000000
H     0.370000000     0.708000000    -2.423000000
O    -0.766000000    -1.175000000    -7.867000000
H    -0.201000000    -0.927000000    -8.599000000
H    -0.519000000    -0.579000000    -7.161000000
O     5.675000000     2.137000000     3.562000000
H     5.127000000     1.375000000     3.754000000
H     5.931000000     2.470000000     4.422000000
O     1.598000000    -4.793000000    -2.330000000
H     1.221000000    -5.542000000    -1.870000000
H     0.866000000    -4.420000000    -2.822000000
O     6.067000000    -1.053000000     0.634000000
H     5.717000000    -0.166000000     0.723000000
H     5.473000000    -1.597000000     1.151000000
O    -2.391000000    -1.783000000     3.797000000
H    -2.916000000    -2.470000000     3.387000000
H    -3.034000000    -1.177000000     4.164000000
O     1.315000000     1.512000000     6.840000000
H     0.760000000     2.159000000     6.404000000
H     1.957000000     1.261000000     6.176000000
O    -2.552000000     0.015000000    -5.129000000
H    -3.058000000     0.779000000    -4.855000000
H    -1.773000000     0.381000000    -5.549000000
O     3.496000000     0.470000000    -2.064000000
H     3.965000000     0.624000000    -1.243000000
H     3.213000000    -0.443000000    -2.009000000
O    -1.141000000     1.924000000     4.698000000
H    -0.634000000     2.736000000     4.688000000
H    -1.673000000     1.984000000     5.492000000
O     0.315000000    -2.065000000     4.770000000
H     0.861000000    -1.880000000     4.005000000
H    -0.571000000    -1.835000000     4.492000000
O    -2.682000000    -2.402000000    -3.903000000
H    -2.624000000    -1.552000000    -4.338000000
H    -2.626000000    -3.040000000    -4.614000000
O    -0.242000000    -6.600000000    -1.227000000
H    -0.876000000    -6.978000000    -0.618000000
H    -0.745000000    -5.962000000    -1.732000000
O    -5.586000000     0.635000000    -2.070000000
H    -6.238000000     0.291000000    -1.460000000
H    -4.864000000     0.007000000    -2.029000000
O     4.419000000     1.048000000     0.764000000
H     3.739000000     0.751000000     1.369000000
H     4.418000000     2.001000000     0.853000000
