158
-3047.38931
C     1.343000000    -0.358000000     0.196000000
H     2.285000000    -0.889000000     0.313000000
C     0.289000000    -0.674000000     1.083000000
H     0.373000000    -1.203000000     2.029000000
C    -0.940000000    -0.198000000     0.714000000
H    -1.779000000    -0.200000000     1.458000000
C    -1.099000000     0.501000000    -0.472000000
H    -2.101000000     0.844000000    -0.714000000
C    -0.069000000     0.821000000    -1.321000000
H    -0.259000000     1.409000000    -2.216000000
C     1.213000000     0.314000000    -0.972000000
C     2.362000000     0.503000000    -1.887000000
O     3.488000000     0.658000000    -1.404000000
O     2.262000000     0.429000000    -3.082000000
O     5.790000000     1.955000000    -1.971000000
H     6.032000000     2.170000000    -1.070000000
H     4.936000000     1.531000000    -1.894000000
O     4.228000000    -3.672000000    -1.620000000
H     4.048000000    -3.405000000    -2.521000000
H     4.235000000    -2.854000000    -1.124000000
O    -5.132000000     3.391000000     0.157000000
H    -5.218000000     2.603000000    -0.379000000
H    -6.008000000     3.533000000     0.516000000
O     8.573000000     2.004000000    -1.384000000
H     7.926000000     1.432000000    -1.798000000
H     8.724000000     2.698000000    -2.026000000
O    -4.120000000    -4.319000000     4.855000000
H    -3.299000000    -3.832000000     4.926000000
H    -4.488000000    -4.296000000     5.739000000
O    -4.401000000     4.786000000     2.898000000
H    -5.084000000     4.120000000     2.825000000
H    -4.007000000     4.822000000     2.027000000
O    -2.545000000     3.956000000    -4.541000000
H    -2.682000000     4.737000000    -5.077000000
H    -1.995000000     4.256000000    -3.817000000
O     6.940000000    -1.758000000    -2.549000000
H     7.569000000    -2.393000000    -2.890000000
H     6.134000000    -1.933000000    -3.036000000
O    -3.369000000     1.796000000    -3.016000000
H    -2.848000000     1.189000000    -3.542000000
H    -2.914000000     2.634000000    -3.099000000
O    -4.139000000    -4.329000000     0.927000000
H    -3.984000000    -5.239000000     1.181000000
H    -4.142000000    -4.344000000    -0.030000000
O     1.393000000     0.300000000    -5.774000000
H     1.989000000     0.911000000    -6.207000000
H     1.614000000     0.368000000    -4.845000000
O    -0.127000000     0.549000000     4.923000000
H     0.494000000     1.158000000     5.323000000
H     0.414000000    -0.181000000     4.623000000
O    -6.983000000     0.615000000     1.587000000
H    -6.660000000     0.755000000     0.697000000
H    -7.031000000    -0.336000000     1.678000000
O    -0.699000000    -1.675000000    -5.660000000
H     0.010000000    -1.191000000    -6.083000000
H    -0.289000000    -2.485000000    -5.358000000
O    -3.261000000     0.632000000     4.570000000
H    -2.318000000     0.529000000     4.441000000
H    -3.624000000    -0.235000000     4.387000000
O    -7.073000000    -2.242000000     1.122000000
H    -6.607000000    -2.542000000     0.341000000
H    -6.711000000    -2.769000000     1.834000000
O    -1.322000000    -3.882000000     1.799000000
H    -2.184000000    -3.809000000     2.209000000
H    -0.718000000    -3.517000000     2.446000000
O    -1.623000000     0.857000000    -4.704000000
H    -1.684000000    -0.098000000    -4.745000000
H    -0.758000000     1.057000000    -5.061000000
O     5.840000000     4.349000000     1.250000000
H     5.628000000     4.733000000     2.100000000
H     5.078000000     3.812000000     1.033000000
O     0.016000000     3.699000000     0.376000000
H    -0.938000000     3.676000000     0.303000000
H     0.235000000     2.918000000     0.884000000
O    -3.593000000     1.800000000    -6.367000000
H    -4.313000000     2.228000000    -5.904000000
H    -2.966000000     1.575000000    -5.680000000
O    -3.939000000    -4.519000000    -1.763000000
H    -3.020000000    -4.543000000    -1.496000000
H    -3.935000000    -4.043000000    -2.593000000
O    -0.703000000     4.898000000    -2.397000000
H    -0.609000000     4.476000000    -1.543000000
H     0.188000000     5.153000000    -2.637000000
O     1.356000000    -4.145000000    -1.187000000
H     1.476000000    -5.007000000    -1.585000000
H     1.574000000    -3.526000000    -1.884000000
O    -1.705000000    -2.027000000    -2.267000000
H    -1.598000000    -2.713000000    -1.608000000
H    -1.015000000    -1.394000000    -2.069000000
O     1.998000000    -4.105000000     1.625000000
H     2.209000000    -3.173000000     1.681000000
H     1.716000000    -4.234000000     0.720000000
O    -1.452000000    -4.356000000    -0.901000000
H    -1.542000000    -4.168000000     0.033000000
H    -0.507000000    -4.419000000    -1.042000000
O    -5.193000000    -1.535000000     4.999000000
H    -5.720000000    -2.073000000     4.408000000
H    -4.871000000    -2.149000000     5.658000000
O     4.090000000    -0.673000000    -7.309000000
H     3.559000000     0.117000000    -7.203000000
H     4.540000000    -0.549000000    -8.145000000
O     2.484000000    -4.193000000     4.405000000
H     2.224000000    -4.342000000     3.496000000
H     2.880000000    -5.021000000     4.679000000
O     4.547000000    -2.373000000    -3.934000000
H     5.198000000    -1.975000000    -4.512000000
H     3.942000000    -2.820000000    -4.526000000
O     4.076000000     5.435000000    -1.552000000
H     4.842000000     4.865000000    -1.475000000
H     4.339000000     6.105000000    -2.183000000
O    -0.209000000    -4.287000000     4.870000000
H    -0.169000000    -5.176000000     5.224000000
H     0.706000000    -4.009000000     4.820000000
O     1.298000000    -2.355000000    -3.245000000
H     0.952000000    -1.576000000    -3.679000000
H     2.185000000    -2.109000000    -2.982000000
O    -4.327000000    -1.657000000    -2.973000000
H    -4.219000000    -1.740000000    -3.921000000
H    -3.446000000    -1.476000000    -2.646000000
O    -5.691000000     2.383000000     3.465000000
H    -4.862000000     1.924000000     3.600000000
H    -6.170000000     1.836000000     2.842000000
O    -2.618000000     4.300000000     0.449000000
H    -2.816000000     5.162000000     0.082000000
H    -3.446000000     3.823000000     0.402000000
O    -2.832000000     0.806000000     7.365000000
H    -1.950000000     1.177000000     7.375000000
H    -3.048000000     0.728000000     6.436000000
O    -5.364000000     0.818000000    -1.035000000
H    -4.735000000     0.975000000    -1.740000000
H    -5.605000000    -0.103000000    -1.131000000
O     2.089000000     3.864000000    -2.751000000
H     1.561000000     3.145000000    -3.101000000
H     2.741000000     3.434000000    -2.198000000
O    -6.119000000    -4.132000000     3.137000000
H    -5.583000000    -4.361000000     3.897000000
H    -5.540000000    -4.264000000     2.387000000
O    -2.131000000    -2.599000000     5.327000000
H    -1.783000000    -1.771000000     5.661000000
H    -1.366000000    -3.171000000     5.263000000
O     1.686000000     1.822000000     1.794000000
H     2.040000000     1.962000000     2.672000000
H     1.155000000     1.030000000     1.873000000
O     4.107000000    -0.554000000     2.050000000
H     4.395000000     0.359000000     2.038000000
H     4.486000000    -0.935000000     1.258000000
O     4.212000000     2.429000000    -4.407000000
H     4.974000000     2.279000000    -3.847000000
H     3.562000000     1.795000000    -4.102000000
O     5.039000000    -1.199000000    -0.649000000
H     5.657000000    -1.361000000    -1.362000000
H     4.440000000    -0.539000000    -0.997000000
O     4.176000000     2.179000000     0.779000000
H     3.775000000     1.693000000     0.058000000
H     3.453000000     2.356000000     1.380000000
O     1.824000000    -1.334000000     4.241000000
H     2.526000000    -0.842000000     3.814000000
H     2.274000000    -2.048000000     4.693000000
