158
-3047.62392
C     0.922000000    -1.128000000     0.252000000
H     1.570000000    -2.000000000     0.288000000
C    -0.471000000    -1.279000000     0.170000000
H    -0.941000000    -2.251000000     0.296000000
C    -1.227000000    -0.157000000     0.022000000
H    -2.367000000    -0.241000000     0.021000000
C    -0.644000000     1.130000000    -0.089000000
H    -1.220000000     2.031000000    -0.281000000
C     0.714000000     1.262000000    -0.003000000
H     1.212000000     2.199000000    -0.237000000
C     1.533000000     0.144000000     0.184000000
C     3.020000000     0.253000000     0.134000000
O     3.665000000    -0.699000000    -0.197000000
O     3.546000000     1.323000000     0.312000000
O     6.118000000     1.219000000    -0.020000000
H     5.171000000     1.323000000     0.070000000
H     6.222000000     0.436000000    -0.562000000
O     3.562000000    -1.707000000    -5.440000000
H     3.384000000    -1.438000000    -4.539000000
H     3.485000000    -0.900000000    -5.950000000
O    -4.321000000     1.481000000    -0.052000000
H    -4.291000000     1.268000000     0.881000000
H    -5.226000000     1.750000000    -0.208000000
O     6.858000000     2.843000000     1.766000000
H     6.743000000     2.132000000     1.135000000
H     7.760000000     2.748000000     2.072000000
O    -6.927000000     2.760000000    -0.320000000
H    -7.506000000     2.936000000     0.421000000
H    -7.507000000     2.423000000    -1.003000000
O     1.161000000     4.626000000     3.020000000
H     0.298000000     4.439000000     2.652000000
H     1.403000000     3.825000000     3.485000000
O    -1.732000000     5.514000000    -2.402000000
H    -1.173000000     5.890000000    -3.082000000
H    -1.956000000     6.255000000    -1.839000000
O     6.767000000    -0.785000000    -1.855000000
H     7.316000000    -1.099000000    -1.137000000
H     7.359000000    -0.742000000    -2.607000000
O     1.850000000     5.722000000    -1.398000000
H     2.266000000     5.007000000    -0.916000000
H     2.564000000     6.127000000    -1.890000000
O    -3.406000000     1.640000000    -2.468000000
H    -3.659000000     1.559000000    -1.548000000
H    -2.470000000     1.838000000    -2.443000000
O    -0.864000000     1.137000000     2.822000000
H    -0.815000000     0.409000000     3.442000000
H    -0.715000000     0.733000000     1.967000000
O     3.173000000    -0.598000000    -2.818000000
H     2.987000000     0.329000000    -2.966000000
H     3.346000000    -0.660000000    -1.878000000
O     0.647000000     7.104000000     0.958000000
H     0.160000000     6.281000000     0.905000000
H     1.535000000     6.874000000     0.683000000
O    -6.187000000     1.302000000     3.239000000
H    -5.598000000     0.753000000     3.758000000
H    -6.768000000     0.681000000     2.800000000
O    -1.567000000    -1.681000000    -5.363000000
H    -0.843000000    -1.323000000    -4.849000000
H    -1.405000000    -2.624000000    -5.381000000
O     1.081000000    -6.043000000     3.095000000
H     0.796000000    -5.157000000     2.875000000
H     1.760000000    -5.919000000     3.759000000
O     5.964000000     5.326000000     1.977000000
H     6.258000000     5.393000000     2.886000000
H     5.951000000     4.386000000     1.798000000
O    -3.284000000    -4.534000000     4.152000000
H    -2.485000000    -4.034000000     3.984000000
H    -3.249000000    -4.736000000     5.086000000
O     0.223000000     3.577000000    -2.971000000
H     0.551000000     4.439000000    -2.716000000
H    -0.652000000     3.746000000    -3.320000000
O    -3.772000000     4.794000000     0.819000000
H    -4.620000000     4.647000000     0.401000000
H    -3.776000000     4.212000000     1.580000000
O    -7.861000000    -0.378000000     1.125000000
H    -7.281000000     0.065000000     0.505000000
H    -8.513000000    -0.813000000     0.574000000
O    -6.258000000    -0.124000000    -1.314000000
H    -5.345000000    -0.056000000    -1.595000000
H    -6.459000000    -1.058000000    -1.381000000
O    -2.527000000     1.718000000    -5.451000000
H    -2.792000000     2.608000000    -5.219000000
H    -2.350000000     1.295000000    -4.612000000
O    -2.051000000    -5.076000000     0.634000000
H    -1.677000000    -5.079000000    -0.247000000
H    -2.461000000    -5.937000000     0.723000000
O     4.413000000    -3.948000000     1.668000000
H     4.700000000    -3.940000000     0.755000000
H     4.041000000    -3.077000000     1.810000000
O     3.200000000     5.083000000     1.430000000
H     2.651000000     4.962000000     2.205000000
H     4.036000000     5.395000000     1.776000000
O    -0.419000000    -4.774000000    -1.643000000
H    -0.100000000    -5.552000000    -1.186000000
H     0.374000000    -4.339000000    -1.956000000
O    -0.460000000    -0.394000000    -3.199000000
H     0.248000000     0.218000000    -3.399000000
H    -0.542000000    -0.363000000    -2.246000000
O    -0.501000000    -3.644000000     2.546000000
H    -1.174000000    -4.207000000     2.163000000
H    -0.746000000    -2.759000000     2.276000000
O    -3.851000000    -1.711000000    -1.938000000
H    -3.312000000    -2.477000000    -2.137000000
H    -3.478000000    -1.010000000    -2.472000000
O     6.139000000    -1.304000000     4.412000000
H     6.843000000    -0.688000000     4.208000000
H     5.701000000    -1.454000000     3.574000000
O    -5.030000000    -1.567000000     3.292000000
H    -4.394000000    -1.989000000     2.714000000
H    -5.859000000    -2.001000000     3.092000000
O     1.646000000     1.486000000    -3.810000000
H     1.249000000     2.248000000    -3.389000000
H     1.681000000     1.716000000    -4.738000000
O     1.624000000    -3.226000000     4.438000000
H     0.847000000    -3.127000000     3.887000000
H     2.100000000    -2.402000000     4.330000000
O    -2.586000000    -3.811000000    -3.055000000
H    -2.317000000    -3.616000000    -3.953000000
H    -1.782000000    -4.095000000    -2.621000000
O    -2.007000000     3.408000000     3.569000000
H    -1.637000000     2.567000000     3.301000000
H    -2.927000000     3.359000000     3.307000000
O    -0.945000000     4.832000000     0.906000000
H    -1.851000000     4.533000000     0.985000000
H    -0.582000000     4.310000000     0.191000000
O    -3.797000000    -2.343000000     0.855000000
H    -3.830000000    -2.038000000    -0.051000000
H    -3.909000000    -3.292000000     0.793000000
O     3.727000000     3.824000000    -0.739000000
H     3.620000000     2.904000000    -0.496000000
H     3.580000000     4.305000000     0.075000000
O    -5.670000000     2.871000000    -3.527000000
H    -4.806000000     2.538000000    -3.283000000
H    -5.959000000     3.371000000    -2.764000000
O     1.765000000     2.079000000     3.596000000
H     1.909000000     1.698000000     4.462000000
H     1.089000000     1.529000000     3.202000000
O     5.408000000    -0.958000000     1.906000000
H     5.501000000    -0.072000000     2.255000000
H     5.177000000    -0.830000000     0.986000000
O     6.427000000     3.116000000    -2.307000000
H     6.725000000     2.364000000    -1.795000000
H     5.611000000     3.385000000    -1.886000000
O     4.763000000    -3.033000000    -1.093000000
H     5.536000000    -2.785000000    -1.600000000
H     4.385000000    -2.200000000    -0.810000000
O     2.122000000    -3.497000000    -2.623000000
H     2.963000000    -3.931000000    -2.761000000
H     2.295000000    -2.574000000    -2.807000000
O     4.283000000     1.457000000     2.818000000
H     3.708000000     2.077000000     3.268000000
H     4.144000000     1.633000000     1.888000000
O    -4.437000000     3.117000000     2.959000000
H    -4.964000000     3.837000000     3.305000000
H    -4.914000000     2.327000000     3.213000000
O     3.271000000    -0.948000000     4.247000000
H     3.909000000    -0.729000000     4.926000000
H     3.367000000    -0.254000000     3.595000000
