158
-2997.82183
C    -0.670000000    -0.477000000    -1.238000000
H    -1.323000000    -0.797000000    -2.046000000
C    -1.237000000     0.193000000    -0.151000000
H    -2.288000000     0.458000000    -0.072000000
C    -0.482000000     0.696000000     0.853000000
H    -0.960000000     1.178000000     1.783000000
C     0.930000000     0.513000000     0.771000000
H     1.547000000     0.902000000     1.577000000
C     1.481000000    -0.309000000    -0.190000000
H     2.556000000    -0.461000000    -0.127000000
C     0.691000000    -0.798000000    -1.211000000
C     1.314000000    -1.733000000    -2.177000000
O     2.542000000    -1.890000000    -2.118000000
O     0.560000000    -2.237000000    -2.966000000
O     1.554000000     5.148000000     1.529000000
H     1.857000000     5.744000000     0.844000000
H     0.720000000     4.811000000     1.202000000
O    -6.455000000     0.665000000    -1.799000000
H    -7.099000000    -0.036000000    -1.704000000
H    -6.794000000     1.376000000    -1.255000000
O    -4.070000000    -2.655000000     1.614000000
H    -4.103000000    -2.650000000     0.658000000
H    -3.746000000    -1.784000000     1.847000000
O    -0.448000000     4.780000000    -0.207000000
H    -1.218000000     5.342000000    -0.115000000
H    -0.595000000     4.305000000    -1.025000000
O    -2.772000000     2.664000000    -0.972000000
H    -2.017000000     2.559000000    -0.392000000
H    -2.480000000     2.307000000    -1.811000000
O     6.081000000    -4.829000000    -1.253000000
H     5.242000000    -4.469000000    -0.966000000
H     5.911000000    -5.762000000    -1.382000000
O     1.570000000    -1.197000000     6.389000000
H     2.367000000    -0.935000000     6.850000000
H     1.817000000    -1.197000000     5.464000000
O    -0.892000000     3.021000000     3.867000000
H    -1.130000000     3.530000000     4.642000000
H    -0.601000000     2.178000000     4.215000000
O     2.288000000    -1.606000000    -5.230000000
H     2.326000000    -1.584000000    -4.274000000
H     2.470000000    -2.518000000    -5.456000000
O    -3.310000000     5.880000000    -0.246000000
H    -3.459000000     6.517000000    -0.946000000
H    -4.172000000     5.755000000     0.151000000
O     2.015000000     2.966000000     3.231000000
H     1.959000000     3.787000000     2.743000000
H     1.275000000     2.448000000     2.914000000
O     0.548000000    -1.976000000     2.523000000
H     0.461000000    -1.220000000     1.943000000
H     1.289000000    -2.467000000     2.167000000
O    -1.829000000    -5.110000000    -1.108000000
H    -1.120000000    -5.666000000    -1.431000000
H    -1.452000000    -4.655000000    -0.354000000
O    -0.223000000    -1.606000000    -7.264000000
H     0.177000000    -1.199000000    -6.495000000
H    -0.424000000    -0.873000000    -7.845000000
O    -0.421000000    -0.187000000    -4.757000000
H    -0.263000000    -0.937000000    -4.183000000
H     0.305000000     0.409000000    -4.577000000
O    -0.233000000     3.695000000    -2.982000000
H     0.261000000     4.139000000    -3.671000000
H    -1.129000000     3.657000000    -3.316000000
O    -4.479000000    -1.183000000     5.498000000
H    -3.610000000    -0.786000000     5.431000000
H    -5.086000000    -0.452000000     5.377000000
O    -2.765000000     4.705000000     5.471000000
H    -3.413000000     4.010000000     5.356000000
H    -2.688000000     4.805000000     6.420000000
O    -5.300000000     1.444000000     5.350000000
H    -4.487000000     1.426000000     4.844000000
H    -5.719000000     2.268000000     5.102000000
O     2.255000000    -6.974000000    -3.515000000
H     1.469000000    -7.283000000    -3.966000000
H     2.029000000    -6.093000000    -3.216000000
O    -2.976000000    -0.519000000     2.843000000
H    -2.094000000    -0.561000000     3.212000000
H    -3.179000000     0.416000000     2.810000000
O    -2.020000000    -0.026000000     5.909000000
H    -1.951000000     0.797000000     6.392000000
H    -1.378000000     0.055000000     5.204000000
O    -0.954000000    -2.213000000     6.730000000
H    -1.368000000    -1.350000000     6.706000000
H    -0.035000000    -2.044000000     6.524000000
O    -5.406000000     3.743000000    -1.266000000
H    -5.590000000     4.532000000    -0.756000000
H    -4.478000000     3.568000000    -1.110000000
O     3.209000000     3.110000000     5.668000000
H     2.942000000     3.161000000     4.750000000
H     3.037000000     2.203000000     5.918000000
O     3.311000000    -3.841000000     1.965000000
H     4.182000000    -4.193000000     1.785000000
H     3.339000000    -3.590000000     2.888000000
O     4.721000000     1.426000000     2.889000000
H     5.577000000     1.842000000     2.789000000
H     4.126000000     1.973000000     2.376000000
O    -4.341000000    -1.025000000    -3.012000000
H    -4.876000000    -1.779000000    -2.764000000
H    -4.908000000    -0.269000000    -2.863000000
O     6.947000000    -0.704000000    -4.958000000
H     6.496000000    -0.168000000    -5.610000000
H     6.291000000    -0.857000000    -4.278000000
O     5.345000000     0.550000000    -0.669000000
H     6.200000000     0.728000000    -0.279000000
H     4.787000000     1.263000000    -0.357000000
O    -2.494000000     1.435000000    -5.588000000
H    -2.390000000     1.270000000    -6.525000000
H    -1.942000000     0.776000000    -5.167000000
O    -0.352000000    -5.598000000    -5.549000000
H    -0.289000000    -6.330000000    -4.935000000
H    -0.954000000    -4.984000000    -5.128000000
O     2.517000000     2.592000000    -2.042000000
H     2.685000000     2.298000000    -2.937000000
H     1.594000000     2.389000000    -1.891000000
O     3.260000000     2.726000000     0.445000000
H     2.649000000     3.314000000     0.889000000
H     3.038000000     2.806000000    -0.483000000
O    -0.792000000    -4.586000000     1.314000000
H    -0.294000000    -5.157000000     1.898000000
H    -0.535000000    -3.700000000     1.570000000
O     1.627000000    -4.626000000    -2.395000000
H     1.293000000    -3.759000000    -2.623000000
H     2.335000000    -4.454000000    -1.774000000
O     7.329000000    -2.705000000    -2.566000000
H     6.851000000    -3.405000000    -2.120000000
H     6.646000000    -2.115000000    -2.885000000
O     3.909000000    -3.628000000    -0.731000000
H     3.439000000    -2.924000000    -1.178000000
H     3.656000000    -3.539000000     0.188000000
O    -3.147000000    -2.089000000    -5.184000000
H    -2.388000000    -2.501000000    -4.771000000
H    -3.668000000    -1.759000000    -4.451000000
O    -5.355000000     1.636000000     0.625000000
H    -5.085000000     1.599000000    -0.293000000
H    -6.262000000     1.941000000     0.596000000
O     2.867000000    -0.600000000     3.764000000
H     3.492000000    -1.322000000     3.824000000
H     3.346000000     0.095000000     3.312000000
O     2.137000000    -4.272000000    -6.032000000
H     1.245000000    -4.604000000    -5.930000000
H     2.594000000    -4.959000000    -6.518000000
O     5.294000000    -1.140000000    -2.835000000
H     4.552000000    -1.745000000    -2.868000000
H     5.080000000    -0.538000000    -2.122000000
O     0.280000000     0.428000000     4.465000000
H     0.846000000    -0.156000000     3.960000000
H     0.660000000     0.429000000     5.344000000
O    -1.381000000    -3.887000000    -3.750000000
H    -2.011000000    -3.981000000    -3.036000000
H    -0.630000000    -3.448000000    -3.351000000
O    -3.707000000     2.124000000     2.958000000
H    -4.206000000     2.354000000     2.174000000
H    -2.916000000     2.660000000     2.903000000
O     2.159000000     1.446000000    -5.145000000
H     2.161000000     0.490000000    -5.179000000
H     3.022000000     1.675000000    -4.798000000
O    -0.793000000     2.511000000     6.827000000
H    -0.140000000     3.194000000     6.978000000
H    -1.294000000     2.473000000     7.641000000
