158
-3028.43136
C     0.422000000     0.932000000     1.082000000
H     0.682000000     1.440000000     2.007000000
C    -0.153000000    -0.339000000     1.181000000
H    -0.354000000    -0.745000000     2.169000000
C    -0.536000000    -1.081000000     0.155000000
H    -0.937000000    -2.043000000     0.377000000
C    -0.388000000    -0.576000000    -1.095000000
H    -0.647000000    -1.146000000    -1.984000000
C     0.243000000     0.647000000    -1.299000000
H     0.414000000     1.086000000    -2.279000000
C     0.576000000     1.431000000    -0.226000000
C     1.269000000     2.746000000    -0.467000000
O     1.311000000     3.640000000     0.359000000
O     1.877000000     2.980000000    -1.499000000
O     0.899000000     5.992000000    -0.992000000
H     1.054000000     5.130000000    -0.605000000
H     0.367000000     6.452000000    -0.343000000
O    -5.694000000     0.271000000     3.079000000
H    -5.227000000    -0.447000000     2.652000000
H    -6.337000000     0.557000000     2.431000000
O    -0.292000000    -2.394000000     4.274000000
H     0.640000000    -2.175000000     4.272000000
H    -0.692000000    -1.732000000     4.838000000
O    -1.753000000    -5.429000000     0.219000000
H    -1.431000000    -6.300000000    -0.013000000
H    -1.752000000    -4.946000000    -0.607000000
O    -2.605000000     1.097000000     0.279000000
H    -3.259000000     0.773000000    -0.340000000
H    -1.812000000     0.604000000     0.069000000
O    -2.445000000     2.381000000    -2.831000000
H    -2.417000000     3.242000000    -3.250000000
H    -2.902000000     2.533000000    -2.004000000
O    -0.341000000    -7.604000000    -0.520000000
H    -0.384000000    -8.061000000    -1.360000000
H     0.459000000    -7.082000000    -0.571000000
O     5.288000000     6.451000000    -3.656000000
H     4.625000000     6.100000000    -3.062000000
H     5.220000000     7.401000000    -3.557000000
O     4.201000000     1.097000000     2.033000000
H     3.945000000     0.822000000     2.913000000
H     3.963000000     0.359000000     1.473000000
O    -1.270000000     2.977000000     3.582000000
H    -1.923000000     2.332000000     3.310000000
H    -0.865000000     2.594000000     4.360000000
O    -1.715000000    -2.671000000    -6.142000000
H    -0.915000000    -2.338000000    -5.736000000
H    -2.423000000    -2.301000000    -5.614000000
O    -1.811000000    -0.277000000     5.823000000
H    -2.532000000    -0.309000000     5.195000000
H    -2.179000000    -0.637000000     6.630000000
O     0.407000000     4.957000000     2.467000000
H     0.888000000     4.441000000     1.819000000
H    -0.092000000     4.309000000     2.965000000
O     2.272000000    -4.997000000     3.627000000
H     1.728000000    -4.493000000     3.022000000
H     3.083000000    -5.156000000     3.144000000
O     5.216000000     0.329000000    -2.507000000
H     4.682000000     1.105000000    -2.678000000
H     6.027000000     0.484000000    -2.991000000
O     1.286000000    -3.766000000     1.033000000
H     1.168000000    -3.931000000     0.097000000
H     1.604000000    -2.865000000     1.079000000
O     0.841000000    -4.657000000    -1.810000000
H     1.626000000    -4.767000000    -2.348000000
H     0.161000000    -5.144000000    -2.275000000
O    -0.311000000     3.405000000    -5.881000000
H    -0.542000000     2.496000000    -5.687000000
H     0.091000000     3.727000000    -5.074000000
O    -3.222000000     5.899000000    -1.277000000
H    -3.331000000     5.565000000    -2.168000000
H    -2.507000000     5.377000000    -0.912000000
O    -3.473000000    -3.073000000    -1.546000000
H    -2.736000000    -3.647000000    -1.752000000
H    -4.123000000    -3.651000000    -1.147000000
O     3.622000000    -2.131000000     1.633000000
H     4.499000000    -1.839000000     1.386000000
H     3.687000000    -3.086000000     1.660000000
O     0.175000000     4.422000000    -3.132000000
H    -0.470000000     4.616000000    -2.451000000
H     0.923000000     4.060000000    -2.657000000
O    -0.006000000     7.484000000     1.273000000
H    -0.886000000     7.765000000     1.522000000
H     0.167000000     6.721000000     1.824000000
O     4.040000000     7.508000000    -0.187000000
H     3.768000000     6.702000000    -0.625000000
H     3.221000000     7.915000000     0.095000000
O    -4.460000000    -5.473000000    -0.054000000
H    -3.606000000    -5.455000000     0.379000000
H    -4.556000000    -6.377000000    -0.355000000
O     2.037000000     7.427000000    -3.282000000
H     1.667000000     6.873000000    -2.594000000
H     1.309000000     7.581000000    -3.883000000
O    -3.560000000    -1.715000000    -4.145000000
H    -3.632000000    -2.151000000    -3.296000000
H    -4.465000000    -1.624000000    -4.445000000
O    -1.697000000     3.976000000     0.036000000
H    -2.249000000     3.194000000     0.064000000
H    -0.824000000     3.661000000     0.269000000
O     2.019000000     0.250000000     6.042000000
H     2.043000000    -0.482000000     5.426000000
H     1.212000000     0.717000000     5.827000000
O    -2.829000000     0.880000000     3.039000000
H    -3.785000000     0.844000000     3.060000000
H    -2.612000000     0.935000000     2.109000000
O    -2.302000000    -7.228000000     2.834000000
H    -2.322000000    -6.273000000     2.908000000
H    -1.426000000    -7.472000000     3.131000000
O    -5.584000000    -4.048000000     3.569000000
H    -4.867000000    -3.446000000     3.770000000
H    -6.360000000    -3.627000000     3.937000000
O     1.861000000     0.289000000    -4.609000000
H     2.517000000    -0.281000000    -5.010000000
H     2.357000000     1.051000000    -4.310000000
O    -2.223000000    -5.191000000    -2.699000000
H    -2.268000000    -6.141000000    -2.802000000
H    -2.827000000    -4.849000000    -3.358000000
O    -1.402000000    -4.505000000     3.185000000
H    -1.018000000    -3.628000000     3.209000000
H    -1.455000000    -4.718000000     2.254000000
O    -4.574000000    -1.894000000     1.699000000
H    -4.380000000    -1.982000000     0.766000000
H    -5.165000000    -2.622000000     1.891000000
O     0.074000000    -6.418000000     4.663000000
H     0.949000000    -6.221000000     4.329000000
H    -0.344000000    -5.562000000     4.760000000
O    -1.829000000     0.529000000    -4.660000000
H    -2.276000000    -0.277000000    -4.403000000
H    -2.027000000     1.148000000    -3.957000000
O    -4.295000000    -0.369000000    -1.409000000
H    -5.173000000    -0.209000000    -1.755000000
H    -4.122000000    -1.289000000    -1.611000000
O     3.661000000     4.855000000    -1.967000000
H     4.241000000     4.259000000    -1.493000000
H     2.853000000     4.357000000    -2.087000000
O     0.352000000    -1.862000000    -4.354000000
H     0.247000000    -2.072000000    -3.426000000
H     1.098000000    -1.262000000    -4.381000000
O     3.637000000     3.956000000     1.932000000
H     4.104000000     3.180000000     1.623000000
H     2.867000000     4.014000000     1.367000000
O     0.211000000     0.464000000    -6.698000000
H    -0.661000000     0.340000000    -6.323000000
H     0.806000000     0.380000000    -5.953000000
O     3.436000000     4.376000000     4.762000000
H     3.227000000     4.073000000     3.879000000
H     3.444000000     5.331000000     4.692000000
O    -0.170000000     1.846000000     5.869000000
H    -0.720000000     1.065000000     5.807000000
H    -0.462000000     2.282000000     6.669000000
O     2.429000000    -1.472000000     4.047000000
H     2.298000000    -1.584000000     3.105000000
H     3.131000000    -2.085000000     4.265000000
O     4.638000000     1.158000000     5.333000000
H     3.975000000     0.716000000     5.863000000
H     4.142000000     1.773000000     4.793000000
O     3.439000000     2.072000000    -3.513000000
H     2.871000000     2.417000000    -2.824000000
H     4.175000000     2.684000000    -3.544000000
