158
-3033.34258
C    -0.290000000     1.217000000     0.809000000
H    -0.602000000     2.060000000     1.419000000
C    -1.044000000     0.012000000     0.785000000
H    -1.812000000    -0.152000000     1.537000000
C    -0.687000000    -1.038000000    -0.066000000
H    -1.156000000    -1.971000000    -0.022000000
C     0.452000000    -0.890000000    -0.863000000
H     0.734000000    -1.678000000    -1.557000000
C     1.211000000     0.296000000    -0.843000000
H     2.143000000     0.306000000    -1.401000000
C     0.818000000     1.386000000    -0.028000000
C     1.536000000     2.693000000     0.045000000
O     1.341000000     3.410000000     0.976000000
O     2.384000000     2.917000000    -0.761000000
O    -5.797000000    -5.019000000     1.672000000
H    -5.959000000    -4.715000000     0.779000000
H    -6.660000000    -5.273000000     1.999000000
O    -3.182000000    -5.013000000     2.111000000
H    -2.880000000    -5.110000000     1.208000000
H    -4.058000000    -5.399000000     2.114000000
O    -0.187000000    -7.971000000     1.404000000
H    -0.112000000    -7.041000000     1.615000000
H    -0.103000000    -8.008000000     0.451000000
O    -3.999000000    -1.004000000    -1.273000000
H    -3.998000000    -1.545000000    -0.483000000
H    -4.665000000    -1.401000000    -1.834000000
O    -0.571000000     4.476000000     2.239000000
H    -1.105000000     4.769000000     1.501000000
H     0.211000000     4.101000000     1.835000000
O    -2.430000000     4.390000000     0.054000000
H    -2.885000000     3.824000000     0.678000000
H    -2.598000000     3.990000000    -0.799000000
O     4.608000000     1.281000000    -1.399000000
H     4.042000000     2.025000000    -1.193000000
H     5.345000000     1.365000000    -0.794000000
O    -0.978000000    -2.680000000    -4.875000000
H    -1.278000000    -2.132000000    -4.150000000
H    -0.396000000    -2.111000000    -5.380000000
O    -5.394000000    -2.587000000     4.837000000
H    -5.370000000    -1.698000000     4.484000000
H    -4.506000000    -2.919000000     4.709000000
O     0.724000000     5.701000000     4.868000000
H     0.201000000     5.302000000     4.172000000
H     1.087000000     6.492000000     4.470000000
O    -4.354000000     1.664000000    -0.592000000
H    -3.591000000     2.200000000    -0.808000000
H    -4.083000000     0.769000000    -0.796000000
O     3.248000000     0.283000000     5.181000000
H     2.979000000     1.076000000     4.716000000
H     4.199000000     0.253000000     5.072000000
O    -0.002000000    -5.357000000     2.364000000
H    -0.951000000    -5.447000000     2.456000000
H     0.172000000    -4.438000000     2.565000000
O    -1.687000000     1.352000000    -4.711000000
H    -1.014000000     1.903000000    -4.311000000
H    -1.706000000     0.564000000    -4.169000000
O    -4.032000000     2.904000000     1.921000000
H    -4.851000000     3.323000000     2.184000000
H    -4.302000000     2.189000000     1.345000000
O    -2.805000000    -3.410000000     4.301000000
H    -2.921000000    -3.996000000     3.553000000
H    -2.075000000    -3.788000000     4.790000000
O     2.229000000    -4.757000000    -0.862000000
H     2.509000000    -4.172000000    -1.566000000
H     2.461000000    -4.292000000    -0.058000000
O    -2.362000000     2.575000000    -2.025000000
H    -1.435000000     2.810000000    -1.984000000
H    -2.559000000     2.541000000    -2.961000000
O     4.464000000     0.858000000     2.201000000
H     5.127000000     1.408000000     1.784000000
H     4.401000000     0.088000000     1.636000000
O     2.299000000     2.377000000     3.312000000
H     1.875000000     2.901000000     2.633000000
H     3.053000000     1.982000000     2.874000000
O    -0.540000000    -5.301000000    -4.649000000
H    -1.229000000    -5.734000000    -4.145000000
H    -0.648000000    -4.371000000    -4.451000000
O    -6.885000000    -0.771000000     0.039000000
H    -5.944000000    -0.837000000    -0.126000000
H    -7.280000000    -0.749000000    -0.833000000
O    -1.768000000    -1.106000000     3.916000000
H    -1.174000000    -1.317000000     3.195000000
H    -2.135000000    -1.950000000     4.178000000
O    -1.782000000    -0.844000000    -2.926000000
H    -2.622000000    -1.090000000    -2.539000000
H    -1.278000000    -0.485000000    -2.195000000
O     5.997000000     5.316000000     0.076000000
H     6.184000000     5.770000000    -0.746000000
H     5.116000000     5.604000000     0.314000000
O     4.332000000    -1.415000000     0.599000000
H     5.105000000    -1.963000000     0.467000000
H     3.843000000    -1.489000000    -0.220000000
O    -4.851000000    -0.447000000     3.516000000
H    -4.885000000     0.452000000     3.842000000
H    -3.922000000    -0.609000000     3.354000000
O     0.174000000     3.248000000    -2.785000000
H     0.577000000     3.163000000    -1.921000000
H     0.722000000     3.885000000    -3.244000000
O    -2.497000000    -5.087000000    -0.623000000
H    -2.994000000    -4.781000000    -1.381000000
H    -1.613000000    -5.233000000    -0.959000000
O     0.187000000    -6.125000000    -1.991000000
H     0.978000000    -5.808000000    -1.556000000
H     0.264000000    -5.806000000    -2.890000000
O    -4.735000000    -2.327000000     1.204000000
H    -4.398000000    -3.219000000     1.116000000
H    -4.956000000    -2.245000000     2.132000000
O    -1.348000000     0.140000000     6.333000000
H    -0.802000000    -0.509000000     6.776000000
H    -1.499000000    -0.227000000     5.462000000
O     0.952000000    -1.076000000    -6.011000000
H     0.957000000    -0.143000000    -5.793000000
H     1.848000000    -1.262000000    -6.290000000
O    -4.534000000    -3.868000000    -3.057000000
H    -4.736000000    -3.243000000    -3.753000000
H    -4.196000000    -4.637000000    -3.516000000
O     2.842000000     5.508000000    -2.121000000
H     3.610000000     5.924000000    -2.513000000
H     3.162000000     4.661000000    -1.809000000
O     3.340000000    -3.567000000    -3.430000000
H     4.176000000    -4.017000000    -3.555000000
H     3.562000000    -2.636000000    -3.458000000
O     2.514000000    -4.358000000    -6.047000000
H     2.629000000    -4.180000000    -5.113000000
H     2.848000000    -3.574000000    -6.483000000
O    -4.385000000     2.108000000     4.789000000
H    -3.725000000     2.502000000     5.359000000
H    -4.593000000     2.793000000     4.153000000
O     3.262000000     5.939000000     0.673000000
H     3.255000000     5.361000000     1.436000000
H     2.635000000     5.545000000     0.067000000
O     1.358000000     2.816000000     5.831000000
H     1.575000000     2.336000000     5.032000000
H     1.351000000     3.735000000     5.565000000
O    -2.803000000     4.817000000     4.237000000
H    -2.489000000     4.489000000     5.080000000
H    -2.200000000     4.444000000     3.595000000
O     3.015000000     2.041000000    -3.737000000
H     2.536000000     2.093000000    -2.909000000
H     3.889000000     1.738000000    -3.489000000
O     0.278000000     6.863000000    -1.610000000
H     1.045000000     6.292000000    -1.626000000
H     0.125000000     7.083000000    -2.529000000
O     1.066000000     1.472000000    -5.531000000
H     1.869000000     1.603000000    -5.025000000
H     0.888000000     2.327000000    -5.923000000
O     6.154000000     2.782000000     1.404000000
H     5.864000000     3.658000000     1.152000000
H     6.562000000     2.428000000     0.614000000
O     0.436000000    -2.584000000     2.345000000
H     1.103000000    -2.230000000     2.934000000
H     0.691000000    -2.269000000     1.478000000
O     4.150000000    -0.916000000    -3.054000000
H     4.462000000    -0.151000000    -2.571000000
H     4.929000000    -1.255000000    -3.496000000
O    -6.006000000    -4.828000000    -1.026000000
H    -6.529000000    -5.481000000    -1.491000000
H    -5.437000000    -4.453000000    -1.698000000
