158
-3061.16150
C     0.844000000     1.017000000     0.750000000
H     1.446000000     1.684000000     1.363000000
C     0.128000000    -0.079000000     1.403000000
H     0.224000000    -0.315000000     2.459000000
C    -0.618000000    -0.987000000     0.529000000
H    -1.048000000    -1.931000000     0.928000000
C    -0.683000000    -0.677000000    -0.837000000
H    -1.212000000    -1.368000000    -1.488000000
C     0.073000000     0.367000000    -1.378000000
H     0.098000000     0.434000000    -2.463000000
C     0.828000000     1.261000000    -0.653000000
C     1.506000000     2.418000000    -1.344000000
O     2.235000000     3.177000000    -0.689000000
O     1.285000000     2.633000000    -2.532000000
O     2.132000000     5.537000000    -1.767000000
H     1.889000000     4.654000000    -1.487000000
H     2.931000000     5.732000000    -1.277000000
O    -5.163000000    -3.686000000     4.577000000
H    -4.447000000    -3.879000000     3.972000000
H    -5.424000000    -4.541000000     4.919000000
O     4.234000000    -1.428000000    -2.448000000
H     4.189000000    -0.599000000    -2.925000000
H     4.884000000    -1.943000000    -2.925000000
O    -4.132000000    -2.095000000     0.263000000
H    -3.933000000    -3.016000000     0.433000000
H    -4.227000000    -2.042000000    -0.687000000
O    -0.262000000     6.490000000    -0.502000000
H    -0.375000000     6.866000000     0.371000000
H     0.664000000     6.252000000    -0.542000000
O    -1.196000000     3.689000000     0.793000000
H    -1.266000000     3.581000000    -0.155000000
H    -0.738000000     2.903000000     1.091000000
O     6.379000000     1.644000000    -2.843000000
H     5.942000000     2.400000000    -2.451000000
H     6.989000000     1.344000000    -2.170000000
O     4.890000000     4.527000000    -4.248000000
H     4.010000000     4.404000000    -4.603000000
H     5.319000000     5.115000000    -4.868000000
O    -3.161000000    -0.266000000     1.705000000
H    -2.233000000    -0.400000000     1.515000000
H    -3.609000000    -0.953000000     1.211000000
O     1.427000000    -4.370000000    -4.288000000
H     1.398000000    -4.691000000    -5.189000000
H     0.909000000    -3.565000000    -4.304000000
O    -1.525000000     5.477000000    -2.734000000
H    -1.016000000     5.714000000    -1.959000000
H    -1.152000000     6.010000000    -3.437000000
O    -2.405000000    -4.458000000     3.472000000
H    -1.967000000    -5.278000000     3.244000000
H    -2.089000000    -4.254000000     4.352000000
O     1.841000000     4.179000000     1.682000000
H     2.028000000     3.945000000     0.773000000
H     0.887000000     4.244000000     1.721000000
O     2.505000000     7.560000000     0.311000000
H     2.444000000     8.338000000    -0.243000000
H     3.398000000     7.242000000     0.180000000
O    -4.428000000     1.788000000     0.458000000
H    -3.963000000     1.057000000     0.864000000
H    -4.683000000     2.347000000     1.192000000
O     6.018000000     1.557000000     3.181000000
H     5.617000000     2.072000000     2.481000000
H     5.965000000     2.120000000     3.953000000
O    -0.747000000    -5.180000000    -0.387000000
H    -1.304000000    -4.682000000    -0.985000000
H     0.140000000    -4.868000000    -0.569000000
O    -2.496000000    -0.842000000     4.693000000
H    -2.696000000    -1.274000000     3.862000000
H    -1.732000000    -0.298000000     4.502000000
O    -1.236000000     0.194000000    -5.319000000
H    -1.107000000     1.079000000    -4.978000000
H    -2.031000000    -0.116000000    -4.884000000
O    -2.220000000    -4.976000000    -3.073000000
H    -1.634000000    -5.236000000    -3.784000000
H    -2.451000000    -5.799000000    -2.641000000
O     1.631000000    -4.552000000    -1.498000000
H     1.726000000    -4.440000000    -2.444000000
H     1.884000000    -3.705000000    -1.130000000
O    -2.784000000     2.819000000    -1.495000000
H    -3.298000000     2.581000000    -0.723000000
H    -3.390000000     2.712000000    -2.228000000
O     5.222000000     2.858000000     0.797000000
H     5.295000000     3.170000000    -0.105000000
H     4.699000000     2.059000000     0.732000000
O     4.644000000     4.722000000     2.647000000
H     3.761000000     4.463000000     2.380000000
H     5.214000000     4.365000000     1.966000000
O    -5.991000000    -5.467000000     0.977000000
H    -5.171000000    -4.972000000     0.977000000
H    -5.826000000    -6.201000000     1.569000000
O     2.440000000     2.104000000    -7.051000000
H     2.059000000     2.641000000    -6.356000000
H     2.355000000     1.205000000    -6.732000000
O     1.182000000    -3.451000000     3.024000000
H     1.925000000    -3.578000000     2.434000000
H     1.171000000    -4.240000000     3.567000000
O    -3.468000000    -0.980000000    -3.891000000
H    -3.889000000    -0.399000000    -3.258000000
H    -3.361000000    -1.808000000    -3.422000000
O    -5.573000000     0.754000000     3.552000000
H    -4.958000000     1.477000000     3.426000000
H    -5.395000000     0.159000000     2.824000000
O     4.816000000     0.181000000     0.005000000
H     4.719000000    -0.604000000     0.544000000
H     4.683000000    -0.126000000    -0.892000000
O    -0.584000000    -3.421000000     5.307000000
H    -0.295000000    -2.837000000     6.007000000
H    -0.269000000    -3.007000000     4.504000000
O    -1.251000000     2.639000000    -4.106000000
H    -0.415000000     2.656000000    -3.640000000
H    -1.847000000     3.137000000    -3.547000000
O    -3.310000000    -4.592000000     0.946000000
H    -2.800000000    -5.336000000     0.627000000
H    -2.877000000    -4.337000000     1.761000000
O     0.312000000    -1.930000000    -4.668000000
H    -0.425000000    -1.323000000    -4.604000000
H     1.046000000    -1.387000000    -4.953000000
O    -3.831000000    -3.051000000    -2.298000000
H    -4.683000000    -3.483000000    -2.367000000
H    -3.208000000    -3.695000000    -2.635000000
O     1.679000000     3.995000000    -4.819000000
H     1.428000000     4.905000000    -4.664000000
H     1.692000000     3.598000000    -3.947000000
O     2.209000000    -2.014000000    -0.641000000
H     2.866000000    -1.886000000    -1.325000000
H     1.539000000    -1.356000000    -0.826000000
O     4.819000000     6.068000000    -0.766000000
H     4.757000000     5.113000000    -0.775000000
H     5.737000000     6.247000000    -0.564000000
O     4.688000000     3.456000000    -1.868000000
H     4.759000000     4.034000000    -2.627000000
H     3.752000000     3.438000000    -1.667000000
O     1.345000000     4.242000000     4.907000000
H     1.649000000     4.475000000     4.030000000
H     2.120000000     4.337000000     5.462000000
O    -0.741000000     5.595000000     2.531000000
H    -1.012000000     4.987000000     1.842000000
H    -1.104000000     5.223000000     3.335000000
O     3.725000000     0.851000000    -3.666000000
H     3.051000000     1.503000000    -3.472000000
H     4.530000000     1.225000000    -3.307000000
O    -1.518000000     4.631000000    -6.064000000
H    -1.477000000     3.975000000    -5.368000000
H    -2.008000000     4.206000000    -6.767000000
O    -0.336000000    -6.387000000     2.278000000
H     0.192000000    -6.713000000     3.006000000
H     0.288000000    -5.926000000     1.717000000
O     3.056000000    -4.115000000     1.108000000
H     2.794000000    -3.511000000     0.414000000
H     3.010000000    -4.981000000     0.703000000
O     4.836000000    -1.930000000     2.102000000
H     4.624000000    -1.677000000     3.001000000
H     4.005000000    -2.232000000     1.736000000
O    -1.256000000     3.495000000     4.491000000
H    -0.338000000     3.764000000     4.472000000
H    -1.387000000     3.153000000     5.376000000
O     2.615000000    -0.527000000    -5.595000000
H     3.137000000    -0.047000000    -4.952000000
H     2.895000000    -1.438000000    -5.497000000
