158
-3040.77268
C     0.481000000     0.288000000    -1.313000000
H     0.847000000     0.762000000    -2.220000000
C     1.266000000     0.094000000    -0.197000000
H     2.339000000     0.150000000    -0.361000000
C     0.678000000    -0.105000000     1.041000000
H     1.212000000    -0.097000000     2.034000000
C    -0.680000000    -0.403000000     1.064000000
H    -1.223000000    -0.549000000     1.995000000
C    -1.444000000    -0.357000000    -0.111000000
H    -2.460000000    -0.743000000    -0.072000000
C    -0.895000000     0.153000000    -1.279000000
C    -1.650000000     0.384000000    -2.565000000
O    -1.041000000     0.626000000    -3.575000000
O    -2.824000000     0.338000000    -2.561000000
O     3.264000000     3.700000000    -2.436000000
H     2.775000000     4.044000000    -3.183000000
H     4.079000000     4.202000000    -2.431000000
O     5.228000000     0.510000000     2.817000000
H     4.571000000     0.194000000     3.437000000
H     5.773000000    -0.256000000     2.634000000
O     0.244000000     2.730000000    -7.383000000
H    -0.289000000     3.500000000    -7.584000000
H     0.329000000     2.740000000    -6.429000000
O     1.614000000    -0.284000000    -7.864000000
H     0.903000000    -0.021000000    -8.448000000
H     1.750000000     0.475000000    -7.296000000
O     1.955000000     0.221000000     6.704000000
H     2.074000000     0.657000000     5.861000000
H     1.558000000     0.888000000     7.265000000
O    -0.512000000     2.703000000     0.896000000
H    -1.211000000     2.817000000     0.252000000
H    -0.028000000     1.935000000     0.592000000
O    -5.248000000    -0.170000000    -1.399000000
H    -4.330000000     0.073000000    -1.510000000
H    -5.235000000    -1.124000000    -1.318000000
O     2.973000000     5.076000000     3.098000000
H     3.411000000     5.523000000     2.373000000
H     3.147000000     4.147000000     2.945000000
O    -3.998000000    -0.008000000     2.545000000
H    -3.985000000    -0.943000000     2.344000000
H    -4.087000000     0.419000000     1.693000000
O     6.088000000    -2.210000000     3.176000000
H     6.821000000    -2.532000000     2.651000000
H     6.480000000    -1.979000000     4.018000000
O    -6.413000000     1.043000000    -3.680000000
H    -6.018000000     0.734000000    -2.865000000
H    -6.485000000     0.258000000    -4.224000000
O     1.555000000    -3.023000000     0.920000000
H     2.433000000    -3.362000000     1.096000000
H     1.705000000    -2.157000000     0.540000000
O     4.905000000    -1.907000000    -0.488000000
H     5.501000000    -1.180000000    -0.664000000
H     4.260000000    -1.865000000    -1.194000000
O     5.614000000     2.856000000     4.140000000
H     5.333000000     1.973000000     3.902000000
H     5.490000000     3.370000000     3.342000000
O     6.142000000    -0.733000000    -3.757000000
H     5.582000000    -0.111000000    -3.293000000
H     7.007000000    -0.615000000    -3.365000000
O     2.378000000     3.366000000     0.309000000
H     2.450000000     3.401000000    -0.645000000
H     1.440000000     3.453000000     0.482000000
O    -1.263000000    -0.498000000    -8.233000000
H    -1.956000000     0.035000000    -8.622000000
H    -1.275000000    -0.266000000    -7.304000000
O    -2.232000000    -5.251000000    -2.772000000
H    -1.676000000    -4.557000000    -2.417000000
H    -1.925000000    -5.368000000    -3.671000000
O    -5.010000000    -2.881000000    -1.625000000
H    -5.684000000    -3.556000000    -1.708000000
H    -4.269000000    -3.331000000    -1.219000000
O    -1.004000000     4.437000000    -4.715000000
H    -1.679000000     4.538000000    -5.386000000
H    -0.925000000     5.305000000    -4.321000000
O    -3.660000000     2.509000000    -3.791000000
H    -4.615000000     2.573000000    -3.806000000
H    -3.481000000     1.709000000    -3.297000000
O    -5.620000000     1.533000000     0.582000000
H    -5.684000000     0.868000000    -0.103000000
H    -6.380000000     2.098000000     0.439000000
O    -4.288000000    -0.716000000    -7.735000000
H    -4.462000000    -1.607000000    -7.431000000
H    -4.160000000    -0.210000000    -6.932000000
O     0.898000000     2.243000000    -4.361000000
H     0.277000000     2.955000000    -4.205000000
H     0.445000000     1.458000000    -4.055000000
O     2.895000000    -2.128000000    -2.576000000
H     2.099000000    -1.815000000    -3.006000000
H     2.642000000    -2.962000000    -2.182000000
O     4.186000000    -1.513000000     7.155000000
H     3.870000000    -2.072000000     7.865000000
H     3.402000000    -1.066000000     6.836000000
O     3.111000000     1.281000000    -5.315000000
H     3.507000000     1.974000000    -5.844000000
H     2.247000000     1.621000000    -5.082000000
O    -2.552000000    -2.905000000     4.140000000
H    -1.921000000    -2.188000000     4.076000000
H    -2.598000000    -3.100000000     5.076000000
O     4.195000000    -3.313000000     1.858000000
H     4.507000000    -3.192000000     0.962000000
H     4.855000000    -2.881000000     2.402000000
O    -0.504000000     2.963000000     3.590000000
H    -0.661000000     3.059000000     2.651000000
H    -1.050000000     2.220000000     3.850000000
O    -2.077000000    -2.850000000    -6.089000000
H    -1.932000000    -2.529000000    -6.979000000
H    -2.735000000    -2.258000000    -5.725000000
O    -3.739000000    -2.541000000     1.644000000
H    -3.554000000    -2.981000000     2.473000000
H    -3.374000000    -3.123000000     0.977000000
O    -3.194000000    -4.513000000    -0.222000000
H    -2.450000000    -4.596000000    -0.819000000
H    -3.236000000    -5.358000000     0.227000000
O    -2.331000000     1.145000000    -5.827000000
H    -2.421000000     2.078000000    -5.636000000
H    -1.950000000     0.773000000    -5.032000000
O    -0.728000000    -3.716000000    -1.143000000
H    -0.626000000    -2.814000000    -0.839000000
H     0.125000000    -4.119000000    -0.986000000
O     4.406000000     0.993000000    -2.640000000
H     4.033000000     0.892000000    -3.516000000
H     3.872000000     1.673000000    -2.230000000
O     0.220000000    -5.211000000     2.055000000
H     0.507000000    -4.524000000     1.454000000
H     0.637000000    -6.007000000     1.725000000
O    -3.927000000     3.602000000     0.740000000
H    -3.611000000     3.677000000    -0.160000000
H    -4.455000000     2.804000000     0.742000000
O     4.440000000     3.079000000     1.762000000
H     3.667000000     3.241000000     1.220000000
H     4.303000000     2.201000000     2.118000000
O    -0.362000000    -1.002000000     5.104000000
H    -0.952000000    -0.717000000     5.802000000
H     0.509000000    -0.973000000     5.500000000
O    -3.475000000     4.369000000    -1.825000000
H    -3.538000000     3.630000000    -2.430000000
H    -2.702000000     4.852000000    -2.118000000
O    -3.869000000    -1.452000000    -4.520000000
H    -4.519000000    -1.403000000    -3.820000000
H    -3.332000000    -0.668000000    -4.403000000
O     0.363000000    -1.727000000    -3.971000000
H    -0.167000000    -2.459000000    -3.654000000
H    -0.186000000    -0.956000000    -3.834000000
O     6.311000000     2.619000000    -1.106000000
H     6.055000000     2.488000000    -0.193000000
H     5.934000000     1.870000000    -1.569000000
O    -1.976000000     0.970000000     4.229000000
H    -1.462000000     0.175000000     4.087000000
H    -2.797000000     0.811000000     3.763000000
O     1.873000000    -4.717000000     4.010000000
H     1.931000000    -3.783000000     4.214000000
H     1.194000000    -4.773000000     3.338000000
O     0.357000000     4.486000000    -1.839000000
H     0.878000000     5.059000000    -2.403000000
H     0.074000000     3.776000000    -2.415000000
O     2.364000000     1.780000000     4.446000000
H     2.403000000     2.573000000     4.981000000
H     1.571000000     1.885000000     3.920000000
