158
-3033.95135
C     0.401000000     0.371000000     1.355000000
H     0.628000000     0.544000000     2.403000000
C    -0.115000000    -0.845000000     1.059000000
H    -0.299000000    -1.527000000     1.885000000
C    -0.359000000    -1.114000000    -0.277000000
H    -0.781000000    -2.022000000    -0.591000000
C    -0.150000000    -0.176000000    -1.263000000
H    -0.385000000    -0.461000000    -2.286000000
C     0.209000000     1.118000000    -0.912000000
H     0.275000000     1.908000000    -1.656000000
C     0.479000000     1.380000000     0.411000000
C     0.901000000     2.779000000     0.835000000
O     1.052000000     3.091000000     2.005000000
O     1.044000000     3.627000000    -0.003000000
O     1.473000000     6.168000000     1.408000000
H     1.158000000     5.342000000     1.039000000
H     2.197000000     5.913000000     1.980000000
O     2.983000000    -1.196000000    -0.878000000
H     2.085000000    -0.897000000    -1.019000000
H     3.284000000    -0.702000000    -0.116000000
O    -1.519000000    -4.076000000     1.661000000
H    -1.696000000    -3.723000000     0.789000000
H    -0.813000000    -4.707000000     1.525000000
O    -2.197000000    -4.932000000    -1.264000000
H    -1.316000000    -5.229000000    -1.492000000
H    -2.754000000    -5.275000000    -1.963000000
O    -2.864000000     1.050000000     0.015000000
H    -1.980000000     0.696000000     0.113000000
H    -3.095000000     0.870000000    -0.896000000
O    -3.627000000     0.801000000    -2.619000000
H    -4.199000000     0.892000000    -3.380000000
H    -3.844000000    -0.057000000    -2.256000000
O     3.360000000     7.399000000    -0.352000000
H     2.636000000     6.918000000     0.048000000
H     2.956000000     7.884000000    -1.072000000
O    -1.753000000     8.068000000    -0.915000000
H    -1.246000000     7.424000000    -0.422000000
H    -1.728000000     7.753000000    -1.818000000
O     5.096000000     0.243000000     3.312000000
H     4.792000000    -0.636000000     3.537000000
H     6.020000000     0.128000000     3.091000000
O    -3.363000000     0.309000000     3.896000000
H    -3.126000000    -0.549000000     3.542000000
H    -3.817000000     0.112000000     4.715000000
O    -1.062000000    -4.046000000    -5.003000000
H    -0.502000000    -3.510000000    -4.442000000
H    -1.026000000    -3.617000000    -5.858000000
O     0.388000000     4.574000000    -4.575000000
H    -0.484000000     4.703000000    -4.948000000
H     0.285000000     4.790000000    -3.648000000
O    -2.498000000    -2.297000000     3.525000000
H    -3.273000000    -2.629000000     3.979000000
H    -2.300000000    -2.965000000     2.868000000
O    -0.579000000     4.559000000     3.365000000
H     0.144000000     4.154000000     2.886000000
H    -1.077000000     3.821000000     3.716000000
O     4.234000000    -2.392000000     3.498000000
H     3.464000000    -2.569000000     4.039000000
H     4.581000000    -3.259000000     3.285000000
O     0.145000000    -7.339000000     2.389000000
H     0.444000000    -6.725000000     3.059000000
H     0.469000000    -6.973000000     1.566000000
O     4.329000000    -1.604000000    -3.220000000
H     3.921000000    -1.641000000    -2.355000000
H     5.201000000    -1.243000000    -3.059000000
O     0.617000000     0.297000000     7.246000000
H     0.772000000     1.042000000     6.666000000
H     0.010000000    -0.262000000     6.762000000
O     0.811000000    -6.074000000     0.305000000
H     1.649000000    -6.161000000    -0.148000000
H     0.210000000    -5.746000000    -0.364000000
O    -1.034000000    -1.229000000     5.875000000
H    -1.731000000    -1.481000000     6.480000000
H    -1.225000000    -1.717000000     5.074000000
O     0.071000000    -5.581000000    -2.673000000
H     0.903000000    -5.492000000    -3.136000000
H    -0.583000000    -5.248000000    -3.288000000
O     1.076000000     0.650000000    -4.120000000
H     1.645000000     0.775000000    -4.879000000
H     1.524000000     1.105000000    -3.406000000
O    -4.327000000    -1.974000000    -4.194000000
H    -4.050000000    -2.640000000    -4.824000000
H    -4.951000000    -2.426000000    -3.627000000
O     3.776000000    -3.617000000    -0.139000000
H     3.730000000    -2.734000000    -0.506000000
H     3.065000000    -3.648000000     0.500000000
O    -0.550000000     5.124000000    -1.296000000
H    -1.330000000     4.603000000    -1.486000000
H     0.096000000     4.486000000    -0.993000000
O     1.233000000     6.770000000     4.348000000
H     0.684000000     7.198000000     5.004000000
H     0.614000000     6.312000000     3.779000000
O    -3.426000000     3.681000000     0.480000000
H    -3.251000000     2.745000000     0.380000000
H    -3.218000000     3.868000000     1.396000000
O     3.719000000     3.898000000     0.489000000
H     4.017000000     4.778000000     0.259000000
H     2.764000000     3.966000000     0.511000000
O     1.173000000     7.226000000    -2.011000000
H     1.685000000     6.825000000    -2.713000000
H     0.499000000     6.578000000    -1.805000000
O     4.348000000     2.155000000    -3.997000000
H     3.756000000     2.229000000    -3.248000000
H     4.621000000     3.054000000    -4.176000000
O    -2.552000000    -0.880000000    -6.169000000
H    -2.829000000    -0.969000000    -5.257000000
H    -2.151000000    -0.012000000    -6.213000000
O    -2.615000000     3.347000000    -2.251000000
H    -2.779000000     2.422000000    -2.434000000
H    -2.905000000     3.468000000    -1.347000000
O    -5.175000000     0.869000000     1.730000000
H    -5.341000000    -0.058000000     1.902000000
H    -4.229000000     0.923000000     1.599000000
O     1.627000000    -2.976000000     5.438000000
H     1.236000000    -2.144000000     5.705000000
H     1.986000000    -3.342000000     6.246000000
O    -4.144000000    -4.537000000     0.757000000
H    -3.558000000    -4.599000000     1.511000000
H    -3.559000000    -4.530000000    -0.001000000
O    -5.297000000    -1.835000000     1.373000000
H    -4.955000000    -2.720000000     1.243000000
H    -6.194000000    -1.967000000     1.678000000
O    -1.520000000     1.508000000    -5.210000000
H    -0.800000000     1.225000000    -4.646000000
H    -2.217000000     1.756000000    -4.603000000
O    -4.123000000    -1.635000000    -1.165000000
H    -4.271000000    -1.536000000    -0.224000000
H    -4.781000000    -2.272000000    -1.445000000
O     3.332000000     5.594000000     3.216000000
H     2.919000000     6.257000000     3.770000000
H     3.129000000     4.763000000     3.645000000
O     0.778000000    -2.247000000    -4.316000000
H     1.370000000    -2.327000000    -5.064000000
H     0.809000000    -1.318000000    -4.085000000
O     3.116000000     2.503000000     3.534000000
H     3.549000000     1.787000000     3.069000000
H     2.372000000     2.735000000     2.977000000
O     1.122000000     2.577000000     5.967000000
H     1.727000000     2.304000000     5.278000000
H     1.568000000     3.304000000     6.403000000
O     6.152000000     3.504000000    -0.518000000
H     5.356000000     3.365000000    -0.004000000
H     6.198000000     4.452000000    -0.637000000
O     2.833000000     1.620000000    -2.010000000
H     2.443000000     1.926000000    -1.191000000
H     3.494000000     0.984000000    -1.739000000
O    -2.351000000     4.692000000    -4.600000000
H    -2.384000000     4.284000000    -3.735000000
H    -2.933000000     5.449000000    -4.530000000
O     0.047000000     8.476000000     2.005000000
H     0.867000000     8.964000000     2.085000000
H     0.319000000     7.590000000     1.765000000
O    -3.114000000     3.307000000     3.303000000
H    -3.040000000     2.395000000     3.584000000
H    -2.802000000     3.814000000     4.052000000
O     4.380000000     0.625000000     0.777000000
H     4.262000000     1.507000000     1.131000000
H     4.876000000     0.161000000     1.452000000
