158
-3019.19837
C     1.303000000    -0.133000000    -0.644000000
H     2.329000000    -0.255000000    -0.984000000
C     1.036000000    -0.045000000     0.707000000
H     1.929000000    -0.074000000     1.327000000
C    -0.223000000     0.082000000     1.240000000
H    -0.362000000     0.084000000     2.312000000
C    -1.288000000     0.141000000     0.327000000
H    -2.331000000     0.266000000     0.609000000
C    -1.060000000     0.069000000    -1.046000000
H    -1.925000000     0.136000000    -1.702000000
C     0.258000000    -0.064000000    -1.579000000
C     0.589000000    -0.262000000    -3.035000000
O     1.719000000     0.047000000    -3.383000000
O    -0.344000000    -0.311000000    -3.823000000
O     2.286000000     2.476000000    -1.499000000
H     1.871000000     1.621000000    -1.605000000
H     1.555000000     3.090000000    -1.425000000
O     5.098000000    -1.015000000     3.089000000
H     4.210000000    -1.371000000     3.135000000
H     5.639000000    -1.756000000     2.818000000
O    -5.147000000     3.193000000     1.144000000
H    -6.030000000     3.367000000     0.818000000
H    -4.962000000     2.296000000     0.868000000
O    -5.072000000     0.256000000     0.280000000
H    -5.848000000     0.070000000    -0.250000000
H    -4.650000000    -0.595000000     0.394000000
O    -1.908000000    -0.096000000     7.250000000
H    -2.310000000     0.401000000     6.538000000
H    -2.394000000    -0.920000000     7.271000000
O    -0.096000000     4.637000000     3.921000000
H    -0.058000000     5.582000000     4.066000000
H     0.615000000     4.283000000     4.455000000
O    -3.148000000    -0.305000000    -4.193000000
H    -2.192000000    -0.267000000    -4.179000000
H    -3.377000000    -0.866000000    -3.452000000
O     4.880000000    -2.035000000    -6.799000000
H     5.173000000    -1.767000000    -5.928000000
H     5.480000000    -1.594000000    -7.400000000
O    -5.275000000     1.499000000    -3.265000000
H    -4.602000000     0.953000000    -2.858000000
H    -5.013000000     2.396000000    -3.058000000
O     0.087000000     4.002000000    -6.821000000
H    -0.278000000     3.354000000    -6.219000000
H     0.124000000     4.810000000    -6.309000000
O     2.600000000     5.264000000     1.799000000
H     3.032000000     6.111000000     1.909000000
H     2.259000000     5.055000000     2.668000000
O    -1.830000000    -3.535000000     3.227000000
H    -2.229000000    -4.402000000     3.159000000
H    -2.322000000    -3.099000000     3.923000000
O    -3.116000000     1.189000000    -6.432000000
H    -3.207000000     0.651000000    -5.646000000
H    -3.325000000     0.597000000    -7.154000000
O    -3.405000000    -2.173000000     5.016000000
H    -4.342000000    -2.267000000     5.189000000
H    -3.336000000    -1.368000000     4.502000000
O     5.654000000    -0.879000000    -0.071000000
H     6.277000000    -0.392000000    -0.611000000
H     5.414000000    -0.269000000     0.626000000
O    -3.898000000     4.330000000     3.260000000
H    -4.384000000     4.356000000     2.436000000
H    -3.242000000     3.645000000     3.130000000
O     2.310000000     2.446000000     2.291000000
H     2.477000000     3.315000000     1.926000000
H     1.576000000     2.108000000     1.779000000
O    -3.128000000     1.192000000     5.358000000
H    -3.833000000     0.993000000     4.742000000
H    -2.450000000     1.603000000     4.821000000
O     2.139000000    -2.486000000    -6.575000000
H     2.058000000    -3.120000000    -5.863000000
H     3.071000000    -2.270000000    -6.598000000
O    -4.211000000    -1.787000000    -2.143000000
H    -4.744000000    -2.498000000    -2.499000000
H    -4.248000000    -1.911000000    -1.194000000
O    -1.033000000     1.961000000    -5.089000000
H    -1.526000000     1.529000000    -5.786000000
H    -0.775000000     1.251000000    -4.502000000
O    -1.686000000     2.363000000     3.215000000
H    -1.842000000     2.391000000     2.271000000
H    -1.012000000     3.026000000     3.366000000
O     2.106000000     1.811000000    -5.133000000
H     1.246000000     2.227000000    -5.071000000
H     2.001000000     0.976000000    -4.677000000
O     6.399000000    -3.027000000    -1.731000000
H     6.150000000    -2.361000000    -1.090000000
H     6.834000000    -3.706000000    -1.214000000
O     4.184000000     0.778000000    -7.021000000
H     3.690000000     0.086000000    -7.461000000
H     3.561000000     1.162000000    -6.404000000
O     0.031000000    -1.719000000     4.233000000
H    -0.388000000    -1.682000000     5.093000000
H    -0.428000000    -2.423000000     3.774000000
O    -1.367000000    -3.508000000    -6.094000000
H    -2.275000000    -3.237000000    -6.231000000
H    -0.850000000    -2.738000000    -6.329000000
O    -3.846000000    -2.115000000     0.695000000
H    -4.180000000    -2.588000000     1.458000000
H    -3.322000000    -2.762000000     0.222000000
O    -1.844000000    -5.217000000     0.536000000
H    -1.488000000    -4.332000000     0.620000000
H    -1.513000000    -5.682000000     1.304000000
O    -0.111000000    -0.951000000    -6.578000000
H     0.665000000    -1.489000000    -6.737000000
H     0.013000000    -0.607000000    -5.693000000
O     0.865000000    -3.681000000    -1.129000000
H     0.120000000    -3.754000000    -1.725000000
H     0.731000000    -2.847000000    -0.678000000
O     6.309000000     1.193000000    -4.236000000
H     5.617000000     1.828000000    -4.050000000
H     5.893000000     0.341000000    -4.104000000
O     2.178000000    -4.207000000     1.521000000
H     1.595000000    -3.651000000     1.004000000
H     2.397000000    -4.933000000     0.937000000
O     4.420000000     3.657000000    -0.355000000
H     3.815000000     3.117000000    -0.864000000
H     5.000000000     3.028000000     0.073000000
O     6.319000000     1.304000000     3.810000000
H     5.859000000     0.480000000     3.649000000
H     6.920000000     1.106000000     4.528000000
O     4.437000000     3.383000000     4.033000000
H     3.845000000     2.676000000     3.776000000
H     5.283000000     3.135000000     3.660000000
O     2.926000000    -0.875000000     5.896000000
H     2.742000000    -1.155000000     4.999000000
H     3.524000000    -1.539000000     6.237000000
O    -0.658000000    -2.390000000     8.287000000
H    -1.257000000    -3.015000000     7.879000000
H    -0.650000000    -1.642000000     7.690000000
O    -4.942000000     0.291000000     3.233000000
H    -5.721000000     0.820000000     3.406000000
H    -4.940000000     0.170000000     2.284000000
O    -4.028000000     4.012000000    -2.991000000
H    -4.200000000     4.780000000    -3.536000000
H    -3.074000000     3.932000000    -2.983000000
O    -1.037000000    -3.307000000    -3.043000000
H    -1.741000000    -3.552000000    -3.642000000
H    -0.505000000    -2.685000000    -3.539000000
O     4.499000000    -1.078000000    -4.010000000
H     4.559000000    -1.614000000    -3.219000000
H     3.629000000    -0.681000000    -3.964000000
O    -0.702000000     0.401000000    -8.783000000
H    -0.413000000    -0.099000000    -8.019000000
H    -1.588000000     0.083000000    -8.955000000
O     1.858000000     2.378000000     5.867000000
H     1.426000000     1.629000000     5.456000000
H     1.789000000     2.208000000     6.807000000
O     2.636000000    -2.370000000     3.414000000
H     1.696000000    -2.197000000     3.469000000
H     2.703000000    -3.159000000     2.876000000
O     0.750000000     4.264000000    -0.239000000
H     0.076000000     4.944000000    -0.206000000
H     1.399000000     4.539000000     0.408000000
O     4.140000000     2.797000000    -3.718000000
H     3.572000000     2.459000000    -4.411000000
H     3.641000000     2.662000000    -2.912000000
O     4.580000000     1.786000000     6.279000000
H     4.556000000     2.619000000     5.808000000
H     3.925000000     1.243000000     5.839000000
