158
-3026.69626
C     0.363000000     0.930000000     1.137000000
H     0.517000000     1.466000000     2.070000000
C     0.003000000    -0.414000000     1.313000000
H    -0.093000000    -0.907000000     2.277000000
C    -0.397000000    -1.137000000     0.182000000
H    -0.735000000    -2.170000000     0.287000000
C    -0.361000000    -0.564000000    -1.113000000
H    -0.625000000    -1.178000000    -1.971000000
C     0.099000000     0.663000000    -1.245000000
H     0.337000000     1.039000000    -2.237000000
C     0.472000000     1.476000000    -0.138000000
C     0.896000000     2.916000000    -0.348000000
O     1.288000000     3.702000000     0.487000000
O     0.874000000     3.342000000    -1.501000000
O    -1.023000000     5.513000000     1.586000000
H    -1.675000000     5.263000000     0.931000000
H    -0.236000000     5.030000000     1.336000000
O    -1.359000000     3.697000000     4.620000000
H    -1.177000000     4.447000000     5.187000000
H    -0.534000000     3.213000000     4.591000000
O     2.694000000    -2.527000000    -2.446000000
H     2.871000000    -3.347000000    -1.985000000
H     2.816000000    -1.848000000    -1.783000000
O    -2.882000000    -5.609000000     1.012000000
H    -2.753000000    -6.089000000     0.195000000
H    -3.108000000    -4.721000000     0.735000000
O    -1.943000000    -6.905000000    -1.230000000
H    -1.143000000    -7.286000000    -0.868000000
H    -2.029000000    -7.307000000    -2.095000000
O    -3.677000000     1.794000000    -0.149000000
H    -3.083000000     2.106000000     0.534000000
H    -3.335000000     0.932000000    -0.388000000
O    -2.868000000    -0.622000000    -3.966000000
H    -3.660000000    -0.656000000    -4.501000000
H    -2.842000000    -1.470000000    -3.521000000
O     3.059000000     6.122000000    -4.240000000
H     2.984000000     6.789000000    -3.558000000
H     2.323000000     6.295000000    -4.827000000
O    -0.665000000     8.007000000    -3.346000000
H    -1.080000000     8.212000000    -4.184000000
H    -0.199000000     7.186000000    -3.504000000
O     4.771000000     1.265000000     0.542000000
H     5.363000000     0.536000000     0.729000000
H     4.322000000     1.007000000    -0.264000000
O    -1.589000000     0.227000000     4.302000000
H    -1.103000000    -0.559000000     4.552000000
H    -2.288000000     0.293000000     4.953000000
O    -0.354000000     4.184000000    -5.798000000
H     0.031000000     5.055000000    -5.894000000
H     0.203000000     3.746000000    -5.155000000
O    -1.013000000    -4.413000000     3.026000000
H    -0.189000000    -4.887000000     2.914000000
H    -1.628000000    -4.862000000     2.445000000
O     1.909000000     5.965000000     1.337000000
H     1.047000000     6.189000000     1.690000000
H     1.844000000     5.036000000     1.118000000
O     3.851000000    -1.379000000     2.504000000
H     3.188000000    -2.070000000     2.505000000
H     3.574000000    -0.781000000     3.198000000
O    -3.460000000    -0.674000000     1.665000000
H    -4.049000000    -0.736000000     2.417000000
H    -2.922000000     0.097000000     1.845000000
O     0.718000000    -6.160000000     1.856000000
H     1.612000000    -5.946000000     2.122000000
H     0.687000000    -5.942000000     0.924000000
O    -1.590000000     7.978000000     0.283000000
H    -1.177000000     7.148000000     0.521000000
H    -1.182000000     8.624000000     0.860000000
O     2.183000000     0.225000000     4.207000000
H     1.906000000     1.133000000     4.089000000
H     1.403000000    -0.223000000     4.535000000
O     0.875000000    -6.442000000    -1.064000000
H     1.645000000    -6.483000000    -1.632000000
H     0.188000000    -6.071000000    -1.618000000
O     5.586000000     3.714000000     3.211000000
H     4.845000000     3.136000000     3.392000000
H     5.185000000     4.536000000     2.928000000
O    -0.462000000    -2.231000000     4.608000000
H     0.237000000    -2.676000000     5.087000000
H    -0.896000000    -2.928000000     4.115000000
O    -0.401000000    -5.126000000    -2.992000000
H    -1.185000000    -4.675000000    -2.678000000
H     0.160000000    -4.427000000    -3.328000000
O     1.783000000    -3.125000000     1.833000000
H     1.926000000    -3.474000000     0.954000000
H     0.838000000    -2.982000000     1.883000000
O    -1.560000000     4.615000000    -2.498000000
H    -1.891000000     3.784000000    -2.839000000
H    -0.776000000     4.375000000    -2.004000000
O     4.363000000     6.095000000     2.727000000
H     4.314000000     6.923000000     3.204000000
H     3.572000000     6.081000000     2.189000000
O    -2.955000000     4.667000000    -0.211000000
H    -2.882000000     5.391000000    -0.833000000
H    -3.086000000     3.894000000    -0.760000000
O     3.560000000     3.841000000    -1.877000000
H     3.335000000     4.420000000    -2.605000000
H     2.727000000     3.675000000    -1.436000000
O     1.272000000     5.978000000    -1.322000000
H     1.690000000     6.187000000    -0.487000000
H     1.239000000     5.021000000    -1.341000000
O    -2.722000000     2.254000000    -3.412000000
H    -2.533000000     1.328000000    -3.559000000
H    -3.645000000     2.274000000    -3.160000000
O    -6.015000000     0.548000000     1.090000000
H    -5.321000000    -0.099000000     0.968000000
H    -6.742000000     0.223000000     0.560000000
O    -6.144000000    -2.445000000    -0.137000000
H    -6.486000000    -3.239000000    -0.547000000
H    -6.788000000    -1.769000000    -0.348000000
O    -3.259000000    -2.931000000     0.341000000
H    -3.014000000    -2.138000000     0.818000000
H    -4.213000000    -2.889000000     0.279000000
O     0.708000000     0.986000000    -6.554000000
H     1.438000000     0.390000000    -6.389000000
H    -0.039000000     0.411000000    -6.719000000
O    -3.566000000    -3.074000000    -2.668000000
H    -3.760000000    -2.847000000    -1.759000000
H    -4.284000000    -3.650000000    -2.930000000
O     4.416000000     6.777000000    -0.837000000
H     4.251000000     5.843000000    -0.964000000
H     5.083000000     6.812000000    -0.152000000
O     0.897000000    -2.956000000    -4.409000000
H     1.445000000    -2.607000000    -3.706000000
H     0.865000000    -2.253000000    -5.058000000
O     2.998000000     2.758000000     2.356000000
H     3.336000000     2.025000000     1.842000000
H     2.447000000     3.246000000     1.744000000
O     3.510000000    -4.361000000    -0.652000000
H     3.380000000    -5.230000000    -0.272000000
H     4.264000000    -4.004000000    -0.181000000
O     1.857000000     3.313000000     4.692000000
H     2.074000000     4.232000000     4.850000000
H     2.261000000     3.113000000     3.848000000
O     1.447000000     2.664000000    -4.052000000
H     0.841000000     1.929000000    -4.154000000
H     1.281000000     2.989000000    -3.167000000
O     1.760000000     8.481000000    -2.378000000
H     0.864000000     8.699000000    -2.634000000
H     1.672000000     7.685000000    -1.853000000
O     2.478000000    -0.742000000    -0.389000000
H     2.880000000    -0.384000000     0.403000000
H     1.537000000    -0.701000000    -0.219000000
O     0.977000000     8.587000000     2.047000000
H     1.549000000     9.300000000     1.763000000
H     1.575000000     7.920000000     2.384000000
O    -4.750000000    -4.207000000     4.184000000
H    -5.306000000    -3.502000000     3.852000000
H    -4.182000000    -4.430000000     3.447000000
O    -2.599000000     1.927000000     2.566000000
H    -2.310000000     1.189000000     3.103000000
H    -2.276000000     2.700000000     3.028000000
O     5.167000000     0.827000000     4.842000000
H     4.304000000     0.553000000     4.532000000
H     4.998000000     1.619000000     5.352000000
O     4.457000000     1.041000000    -2.707000000
H     3.959000000     0.878000000    -3.508000000
H     4.420000000     1.990000000    -2.591000000
