158
-3058.94221
C     1.238000000    -0.414000000    -0.768000000
H     2.175000000    -0.690000000    -1.243000000
C     1.100000000    -0.321000000     0.607000000
H     1.951000000    -0.616000000     1.217000000
C    -0.146000000    -0.130000000     1.228000000
H    -0.215000000    -0.088000000     2.332000000
C    -1.218000000     0.236000000     0.427000000
H    -2.125000000     0.634000000     0.875000000
C    -1.080000000     0.209000000    -0.977000000
H    -1.946000000     0.570000000    -1.527000000
C     0.122000000    -0.081000000    -1.549000000
C     0.308000000     0.054000000    -3.013000000
O     1.396000000     0.363000000    -3.465000000
O    -0.685000000     0.190000000    -3.647000000
O     1.297000000     3.192000000    -0.405000000
H     1.742000000     2.691000000    -1.088000000
H     0.489000000     3.497000000    -0.820000000
O     3.575000000    -0.136000000     4.140000000
H     4.262000000    -0.630000000     4.589000000
H     3.791000000    -0.217000000     3.211000000
O    -5.296000000     1.233000000    -0.064000000
H    -4.878000000     0.443000000    -0.406000000
H    -5.200000000     1.877000000    -0.765000000
O    -4.424000000    -0.578000000     6.587000000
H    -4.364000000     0.320000000     6.911000000
H    -4.309000000    -0.499000000     5.640000000
O    -2.014000000    -2.388000000    -3.233000000
H    -1.712000000    -1.480000000    -3.266000000
H    -2.829000000    -2.352000000    -2.732000000
O    -4.943000000     2.998000000    -2.294000000
H    -4.828000000     3.930000000    -2.479000000
H    -4.096000000     2.605000000    -2.507000000
O    -2.509000000     2.684000000    -6.031000000
H    -3.447000000     2.860000000    -5.954000000
H    -2.307000000     2.865000000    -6.949000000
O    -3.774000000    -1.995000000     3.531000000
H    -3.789000000    -2.894000000     3.861000000
H    -4.639000000    -1.869000000     3.140000000
O     5.575000000    -2.542000000     4.264000000
H     5.096000000    -2.745000000     3.461000000
H     6.178000000    -1.842000000     4.013000000
O    -3.861000000     0.219000000    -5.930000000
H    -3.274000000    -0.447000000    -5.572000000
H    -3.327000000     1.012000000    -5.974000000
O    -0.291000000    -5.096000000     4.017000000
H    -0.477000000    -4.804000000     4.909000000
H    -0.692000000    -5.963000000     3.960000000
O     4.828000000     0.564000000    -0.861000000
H     5.596000000     1.133000000    -0.804000000
H     4.221000000     1.037000000    -1.429000000
O    -0.459000000     3.408000000     1.891000000
H    -0.204000000     4.330000000     1.902000000
H     0.069000000     3.021000000     1.193000000
O    -3.933000000     2.600000000     4.217000000
H    -4.670000000     1.999000000     4.113000000
H    -3.981000000     3.173000000     3.452000000
O     4.603000000    -0.199000000     1.614000000
H     4.512000000     0.083000000     0.703000000
H     4.443000000    -1.142000000     1.590000000
O     0.810000000    -2.910000000    -6.298000000
H     0.863000000    -3.811000000    -5.978000000
H     1.681000000    -2.548000000    -6.139000000
O    -1.616000000     4.306000000     5.802000000
H    -2.173000000     3.929000000     5.121000000
H    -0.965000000     4.817000000     5.322000000
O    -4.361000000    -1.114000000    -1.227000000
H    -5.031000000    -1.519000000    -1.778000000
H    -4.055000000    -1.823000000    -0.661000000
O    -2.576000000     2.304000000    -3.411000000
H    -2.778000000     2.586000000    -4.303000000
H    -2.029000000     1.527000000    -3.522000000
O    -3.294000000     3.775000000     1.599000000
H    -3.453000000     4.097000000     0.712000000
H    -2.527000000     3.210000000     1.515000000
O     4.939000000     2.745000000     2.087000000
H     4.737000000     3.021000000     2.981000000
H     4.939000000     1.789000000     2.126000000
O    -0.371000000     5.296000000    -5.469000000
H    -0.601000000     4.369000000    -5.535000000
H    -0.770000000     5.584000000    -4.649000000
O     0.333000000     2.364000000    -5.256000000
H    -0.549000000     2.065000000    -5.034000000
H     0.913000000     1.721000000    -4.848000000
O     4.601000000    -2.176000000    -1.579000000
H     4.965000000    -1.293000000    -1.518000000
H     5.163000000    -2.706000000    -1.013000000
O     2.443000000     1.758000000    -7.370000000
H     2.173000000     2.645000000    -7.135000000
H     1.665000000     1.368000000    -7.768000000
O     2.534000000     4.285000000    -3.747000000
H     1.673000000     4.410000000    -4.147000000
H     3.147000000     4.323000000    -4.482000000
O    -1.164000000    -1.227000000     4.575000000
H    -1.573000000    -0.376000000     4.417000000
H    -1.742000000    -1.855000000     4.143000000
O    -1.873000000    -4.380000000    -5.143000000
H    -2.448000000    -4.078000000    -5.846000000
H    -1.914000000    -3.686000000    -4.485000000
O    -0.915000000    -2.989000000    -0.656000000
H    -1.028000000    -2.042000000    -0.572000000
H    -0.373000000    -3.098000000    -1.437000000
O    -3.288000000    -3.424000000     0.218000000
H    -2.360000000    -3.386000000    -0.013000000
H    -3.344000000    -4.118000000     0.874000000
O    -1.192000000    -1.219000000    -5.921000000
H    -0.522000000    -1.817000000    -6.251000000
H    -0.897000000    -0.992000000    -5.039000000
O     0.053000000     2.142000000     7.583000000
H     0.003000000     1.470000000     6.903000000
H     0.359000000     2.924000000     7.124000000
O     0.696000000    -3.747000000    -2.802000000
H     0.128000000    -3.855000000    -3.565000000
H     1.528000000    -3.442000000    -3.164000000
O     3.815000000     1.089000000    -4.925000000
H     3.291000000     0.656000000    -4.252000000
H     3.230000000     1.154000000    -5.680000000
O     1.302000000    -3.718000000     1.182000000
H     0.801000000    -3.146000000     0.601000000
H     1.017000000    -4.603000000     0.952000000
O     3.997000000     3.529000000     4.741000000
H     3.499000000     2.711000000     4.742000000
H     4.537000000     3.481000000     5.530000000
O     1.525000000     4.861000000     4.650000000
H     1.733000000     3.962000000     4.397000000
H     2.357000000     5.223000000     4.955000000
O     0.963000000    -0.600000000     6.130000000
H     1.566000000    -1.051000000     5.539000000
H     0.092000000    -0.837000000     5.811000000
O     2.780000000    -1.953000000    -3.705000000
H     3.283000000    -2.011000000    -2.893000000
H     2.290000000    -1.134000000    -3.626000000
O     6.517000000     1.741000000    -3.998000000
H     7.019000000     1.995000000    -4.772000000
H     5.605000000     1.755000000    -4.290000000
O    -0.426000000    -0.181000000    -8.694000000
H    -0.463000000    -0.028000000    -7.749000000
H    -1.319000000    -0.429000000    -8.931000000
O     4.001000000    -3.092000000     1.863000000
H     3.057000000    -3.137000000     1.708000000
H     4.276000000    -4.006000000     1.935000000
O     2.955000000    -2.814000000     5.839000000
H     3.827000000    -2.629000000     5.491000000
H     2.370000000    -2.709000000     5.089000000
O    -1.392000000     1.701000000     3.852000000
H    -1.020000000     2.331000000     3.235000000
H    -2.300000000     1.982000000     3.962000000
O     1.306000000    -2.579000000     3.758000000
H     0.687000000    -2.131000000     3.181000000
H     1.203000000    -3.506000000     3.545000000
O    -0.815000000     3.843000000    -1.801000000
H    -1.331000000     3.322000000    -2.416000000
H    -1.463000000     4.244000000    -1.223000000
O     2.888000000     2.062000000    -2.400000000
H     2.274000000     1.514000000    -2.888000000
H     2.849000000     2.913000000    -2.837000000
O     1.714000000     1.921000000     4.616000000
H     2.170000000     1.145000000     4.290000000
H     0.792000000     1.758000000     4.419000000
