158
-3036.27964
C     1.372000000     0.524000000     0.168000000
H     2.407000000     0.748000000     0.410000000
C     0.764000000    -0.566000000     0.870000000
H     1.369000000    -1.025000000     1.647000000
C    -0.577000000    -0.933000000     0.659000000
H    -1.038000000    -1.750000000     1.243000000
C    -1.220000000    -0.263000000    -0.347000000
H    -2.262000000    -0.524000000    -0.512000000
C    -0.564000000     0.733000000    -1.170000000
H    -1.105000000     1.192000000    -1.994000000
C     0.684000000     1.193000000    -0.865000000
C     1.305000000     2.260000000    -1.749000000
O     2.401000000     2.742000000    -1.443000000
O     0.916000000     2.363000000    -2.873000000
O     2.220000000     5.512000000    -1.342000000
H     2.249000000     4.574000000    -1.530000000
H     1.605000000     5.866000000    -1.985000000
O     2.815000000     1.165000000     3.605000000
H     3.027000000     2.075000000     3.396000000
H     3.366000000     0.650000000     3.015000000
O    -0.884000000    -6.217000000     0.537000000
H    -1.182000000    -6.700000000    -0.235000000
H    -0.773000000    -5.318000000     0.228000000
O    -3.885000000     2.457000000     0.326000000
H    -3.886000000     1.723000000     0.940000000
H    -4.399000000     2.147000000    -0.419000000
O    -4.193000000     1.240000000     5.305000000
H    -5.088000000     1.368000000     4.992000000
H    -3.800000000     0.642000000     4.670000000
O    -2.296000000    -2.154000000    -3.335000000
H    -3.039000000    -1.550000000    -3.329000000
H    -1.651000000    -1.734000000    -3.904000000
O     4.141000000     0.078000000    -6.354000000
H     3.614000000     0.363000000    -5.607000000
H     4.334000000     0.885000000    -6.832000000
O    -3.653000000     3.682000000    -2.843000000
H    -3.759000000     4.508000000    -3.315000000
H    -2.967000000     3.219000000    -3.322000000
O    -0.497000000     5.867000000    -5.132000000
H    -1.412000000     5.678000000    -4.923000000
H    -0.491000000     6.010000000    -6.078000000
O    -2.612000000    -0.222000000     3.705000000
H    -2.720000000    -1.139000000     3.956000000
H    -2.932000000    -0.181000000     2.804000000
O     4.782000000    -2.042000000     3.969000000
H     4.912000000    -1.210000000     3.513000000
H     3.868000000    -2.269000000     3.797000000
O    -1.298000000    -5.692000000     5.031000000
H    -1.911000000    -6.144000000     5.610000000
H    -0.566000000    -5.451000000     5.598000000
O    -2.568000000    -3.105000000     4.551000000
H    -2.338000000    -3.872000000     5.075000000
H    -3.424000000    -2.835000000     4.884000000
O    -0.045000000    -7.099000000     2.943000000
H    -0.841000000    -7.038000000     3.470000000
H    -0.277000000    -6.687000000     2.110000000
O    -4.545000000    -0.042000000     1.659000000
H    -5.415000000     0.358000000     1.647000000
H    -4.562000000    -0.672000000     0.939000000
O     6.159000000     1.870000000    -0.012000000
H     6.165000000     2.780000000     0.287000000
H     6.137000000     1.932000000    -0.967000000
O    -0.304000000     3.733000000     1.968000000
H    -0.568000000     3.609000000     1.056000000
H     0.502000000     4.247000000     1.917000000
O     4.774000000    -0.028000000     1.656000000
H     4.999000000     0.830000000     1.297000000
H     4.580000000    -0.566000000     0.888000000
O     0.483000000    -0.935000000    -5.526000000
H     1.135000000    -0.509000000    -4.970000000
H     0.737000000    -1.858000000    -5.529000000
O    -4.473000000    -0.863000000    -2.674000000
H    -4.588000000     0.066000000    -2.476000000
H    -4.820000000    -1.316000000    -1.906000000
O    -1.272000000     2.550000000    -4.165000000
H    -1.202000000     1.922000000    -4.884000000
H    -0.484000000     2.404000000    -3.642000000
O    -1.587000000     4.061000000    -0.464000000
H    -2.129000000     3.282000000    -0.338000000
H    -1.522000000     4.157000000    -1.414000000
O     0.855000000    -5.400000000    -2.682000000
H     0.650000000    -4.508000000    -2.401000000
H     0.042000000    -5.887000000    -2.545000000
O     3.608000000     3.328000000     0.817000000
H     4.535000000     3.507000000     0.660000000
H     3.274000000     3.037000000    -0.032000000
O     1.431000000     3.845000000    -5.050000000
H     0.942000000     4.665000000    -4.983000000
H     1.221000000     3.374000000    -4.244000000
O     3.574000000    -1.409000000    -1.535000000
H     3.756000000    -2.106000000    -0.904000000
H     4.432000000    -1.038000000    -1.737000000
O    -5.286000000     1.793000000    -1.898000000
H    -4.699000000     2.512000000    -2.132000000
H    -6.063000000     1.932000000    -2.439000000
O     0.968000000     3.124000000    -8.028000000
H     1.048000000     3.577000000    -7.189000000
H     0.212000000     2.547000000    -7.918000000
O     0.518000000    -0.158000000     4.174000000
H     1.168000000     0.510000000     3.955000000
H    -0.152000000    -0.071000000     3.496000000
O    -4.867000000    -2.156000000    -0.154000000
H    -4.162000000    -2.745000000     0.114000000
H    -5.648000000    -2.710000000    -0.171000000
O    -2.884000000    -4.676000000    -3.133000000
H    -3.433000000    -4.746000000    -3.914000000
H    -2.873000000    -3.741000000    -2.930000000
O    -1.344000000    -3.599000000    -0.230000000
H    -0.964000000    -2.725000000    -0.144000000
H    -1.858000000    -3.558000000    -1.037000000
O    -3.269000000    -3.721000000     1.830000000
H    -2.994000000    -3.481000000     2.714000000
H    -2.470000000    -3.659000000     1.306000000
O     0.996000000    -2.357000000    -1.877000000
H     0.576000000    -1.714000000    -1.306000000
H     1.932000000    -2.177000000    -1.794000000
O     3.911000000     3.510000000    -5.946000000
H     3.120000000     3.515000000    -5.408000000
H     4.446000000     4.221000000    -5.594000000
O     1.942000000    -3.962000000     3.537000000
H     1.076000000    -4.368000000     3.482000000
H     2.461000000    -4.416000000     2.874000000
O     2.961000000     7.732000000     0.104000000
H     2.611000000     7.110000000    -0.534000000
H     3.186000000     7.194000000     0.863000000
O    -5.691000000    -5.079000000     2.523000000
H    -5.168000000    -4.293000000     2.366000000
H    -5.438000000    -5.679000000     1.822000000
O    -5.267000000    -2.658000000     4.685000000
H    -5.788000000    -3.367000000     5.061000000
H    -5.664000000    -1.859000000     5.033000000
O     7.629000000     2.244000000    -2.935000000
H     8.051000000     3.014000000    -2.554000000
H     6.693000000     2.441000000    -2.897000000
O     2.596000000     0.358000000    -3.750000000
H     2.600000000    -0.109000000    -2.915000000
H     2.049000000     1.127000000    -3.593000000
O     4.939000000     5.395000000    -4.079000000
H     4.573000000     6.228000000    -3.783000000
H     5.887000000     5.518000000    -4.028000000
O     4.183000000    -2.887000000     0.601000000
H     3.566000000    -3.532000000     0.946000000
H     5.023000000    -3.126000000     0.992000000
O     2.683000000    -5.266000000     1.039000000
H     1.850000000    -5.702000000     0.860000000
H     3.346000000    -5.869000000     0.705000000
O    -1.350000000     2.292000000     4.454000000
H    -1.231000000     2.546000000     3.539000000
H    -1.906000000     1.514000000     4.416000000
O     2.678000000    -3.164000000     5.898000000
H     2.158000000    -2.360000000     5.921000000
H     2.515000000    -3.530000000     5.029000000
O     4.923000000     3.079000000    -2.354000000
H     4.049000000     3.055000000    -1.963000000
H     4.885000000     3.802000000    -2.980000000
O     3.369000000     5.719000000     1.932000000
H     4.084000000     5.822000000     2.561000000
H     3.465000000     4.824000000     1.606000000
