158
-3075.65620
C     1.062000000     0.232000000    -0.956000000
H     1.947000000     0.279000000    -1.585000000
C     1.208000000    -0.106000000     0.423000000
H     2.182000000    -0.282000000     0.872000000
C     0.124000000    -0.294000000     1.238000000
H     0.183000000    -0.566000000     2.316000000
C    -1.130000000    -0.128000000     0.659000000
H    -2.085000000    -0.158000000     1.177000000
C    -1.283000000     0.266000000    -0.656000000
H    -2.255000000     0.599000000    -1.013000000
C    -0.180000000     0.391000000    -1.537000000
C    -0.379000000     0.775000000    -3.012000000
O     0.537000000     1.211000000    -3.660000000
O    -1.337000000     0.407000000    -3.639000000
O     4.401000000     2.552000000    -3.253000000
H     3.493000000     2.413000000    -2.984000000
H     4.636000000     3.399000000    -2.875000000
O     4.143000000    -2.040000000     3.202000000
H     3.288000000    -2.427000000     3.015000000
H     4.333000000    -2.304000000     4.103000000
O    -3.092000000     2.114000000     5.412000000
H    -3.669000000     1.669000000     4.791000000
H    -2.740000000     2.857000000     4.922000000
O    -5.986000000     0.823000000     0.807000000
H    -6.608000000     0.456000000     0.179000000
H    -5.496000000     0.066000000     1.128000000
O    -2.182000000     0.529000000     7.367000000
H    -2.773000000     1.087000000     6.861000000
H    -2.649000000    -0.302000000     7.450000000
O     0.089000000     3.616000000     1.520000000
H    -0.754000000     3.643000000     1.067000000
H     0.198000000     2.699000000     1.768000000
O    -4.097000000     0.958000000    -3.713000000
H    -3.143000000     0.992000000    -3.651000000
H    -4.316000000     0.042000000    -3.544000000
O     2.642000000    -2.694000000    -5.426000000
H     2.618000000    -1.889000000    -4.908000000
H     3.116000000    -2.453000000    -6.222000000
O    -6.574000000     2.439000000    -3.001000000
H    -5.774000000     1.919000000    -3.078000000
H    -6.448000000     2.955000000    -2.204000000
O    -2.496000000    -0.586000000     3.859000000
H    -3.215000000    -0.390000000     4.460000000
H    -2.904000000    -0.590000000     2.993000000
O    -4.123000000     2.351000000    -6.064000000
H    -4.221000000     1.810000000    -5.280000000
H    -4.985000000     2.327000000    -6.480000000
O    -2.702000000    -5.351000000     0.963000000
H    -2.928000000    -6.267000000     1.124000000
H    -2.049000000    -5.144000000     1.631000000
O    -0.336000000     2.742000000     7.618000000
H     0.015000000     3.103000000     6.804000000
H    -0.974000000     2.088000000     7.335000000
O     6.307000000    -1.708000000     0.992000000
H     5.912000000    -2.088000000     1.777000000
H     5.626000000    -1.778000000     0.323000000
O     2.457000000     3.669000000     0.487000000
H     2.350000000     3.432000000    -0.434000000
H     1.564000000     3.728000000     0.825000000
O    -5.714000000     1.938000000     4.053000000
H    -6.349000000     1.222000000     4.070000000
H    -5.582000000     2.118000000     3.122000000
O    -4.544000000    -1.842000000    -3.331000000
H    -4.282000000    -2.218000000    -2.491000000
H    -4.368000000    -2.534000000    -3.969000000
O    -2.190000000     3.982000000    -5.183000000
H    -3.032000000     3.559000000    -5.351000000
H    -1.559000000     3.466000000    -5.683000000
O    -4.181000000     2.583000000    -0.618000000
H    -4.896000000     3.220000000    -0.603000000
H    -4.493000000     1.859000000    -0.076000000
O     5.057000000     4.678000000    -1.250000000
H     4.203000000     4.358000000    -0.960000000
H     5.679000000     4.299000000    -0.628000000
O     1.029000000     2.831000000    -5.632000000
H     0.534000000     2.566000000    -6.407000000
H     0.774000000     2.202000000    -4.957000000
O     4.230000000    -1.595000000    -0.628000000
H     3.805000000    -1.983000000    -1.392000000
H     3.507000000    -1.328000000    -0.061000000
O     1.682000000    -2.369000000     6.396000000
H     1.943000000    -3.260000000     6.163000000
H     2.007000000    -2.250000000     7.289000000
O    -1.172000000    -4.549000000     3.120000000
H    -1.106000000    -3.775000000     3.680000000
H    -0.425000000    -4.478000000     2.525000000
O    -0.554000000    -2.308000000     4.471000000
H    -0.504000000    -2.279000000     5.427000000
H    -1.212000000    -1.650000000     4.245000000
O    -0.462000000     4.958000000     4.204000000
H    -0.099000000     5.659000000     3.663000000
H    -0.313000000     4.160000000     3.696000000
O    -0.275000000    -1.836000000    -6.866000000
H    -0.139000000    -2.180000000    -7.749000000
H     0.508000000    -1.316000000    -6.688000000
O    -4.469000000    -1.361000000     1.866000000
H    -4.738000000    -2.023000000     2.503000000
H    -4.252000000    -1.860000000     1.078000000
O    -3.808000000    -2.967000000    -0.190000000
H    -2.865000000    -2.853000000    -0.075000000
H    -3.930000000    -3.915000000    -0.241000000
O    -1.165000000     1.065000000    -6.141000000
H    -1.276000000     0.140000000    -6.362000000
H    -1.128000000     1.079000000    -5.185000000
O    -1.049000000    -2.838000000    -1.060000000
H    -1.243000000    -2.701000000    -1.987000000
H    -1.007000000    -1.956000000    -0.691000000
O     6.063000000     0.486000000    -2.463000000
H     5.822000000     0.096000000    -1.622000000
H     5.422000000     1.185000000    -2.595000000
O     0.256000000    -4.272000000     0.843000000
H    -0.296000000    -4.076000000     0.086000000
H     0.866000000    -4.940000000     0.529000000
O    -2.099000000     4.072000000    -0.012000000
H    -1.651000000     4.028000000    -0.857000000
H    -2.915000000     3.591000000    -0.148000000
O     4.381000000     0.800000000     3.196000000
H     4.320000000    -0.129000000     3.418000000
H     5.311000000     0.946000000     3.024000000
O     4.221000000     3.399000000     2.487000000
H     3.475000000     3.518000000     1.899000000
H     4.117000000     2.511000000     2.829000000
O     2.490000000    -3.071000000    -2.285000000
H     2.817000000    -3.807000000    -2.804000000
H     1.587000000    -3.309000000    -2.074000000
O     1.992000000     0.301000000     5.370000000
H     2.880000000     0.500000000     5.073000000
H     2.046000000    -0.598000000     5.696000000
O    -1.417000000    -2.778000000     7.223000000
H    -1.594000000    -3.344000000     7.974000000
H    -0.818000000    -2.112000000     7.561000000
O    -0.815000000     4.203000000    -2.701000000
H    -1.127000000     4.013000000    -3.586000000
H    -1.301000000     4.985000000    -2.439000000
O    -1.115000000    -2.296000000    -3.924000000
H    -0.711000000    -2.284000000    -4.792000000
H    -1.332000000    -1.380000000    -3.749000000
O     2.333000000    -0.197000000    -4.706000000
H     2.858000000     0.543000000    -5.012000000
H     1.604000000     0.206000000    -4.235000000
O    -2.421000000     2.418000000    -8.530000000
H    -2.698000000     2.167000000    -7.648000000
H    -1.720000000     3.054000000    -8.389000000
O     1.336000000    -5.446000000     4.802000000
H     2.089000000    -5.948000000     4.490000000
H     1.312000000    -4.673000000     4.238000000
O    -0.308000000     1.577000000     3.778000000
H     0.523000000     1.398000000     4.218000000
H    -0.962000000     1.114000000     4.302000000
O     1.617000000    -3.221000000     3.009000000
H     1.039000000    -2.607000000     3.461000000
H     1.415000000    -3.101000000     2.081000000
O     1.835000000     3.223000000    -2.262000000
H     1.266000000     3.947000000    -2.524000000
H     1.371000000     2.437000000    -2.551000000
O     3.437000000     4.230000000    -5.642000000
H     2.588000000     3.817000000    -5.800000000
H     3.773000000     3.795000000    -4.859000000
