158
-3050.80030
C     0.616000000    -0.019000000    -1.384000000
H     1.206000000     0.052000000    -2.295000000
C     1.101000000     0.595000000    -0.247000000
H     2.073000000     1.082000000    -0.230000000
C     0.480000000     0.528000000     0.982000000
H     0.927000000     0.961000000     1.964000000
C    -0.707000000    -0.146000000     1.091000000
H    -1.127000000    -0.195000000     2.092000000
C    -1.309000000    -0.717000000    -0.073000000
H    -2.224000000    -1.296000000     0.023000000
C    -0.640000000    -0.612000000    -1.344000000
C    -1.204000000    -1.278000000    -2.558000000
O    -0.483000000    -1.777000000    -3.420000000
O    -2.405000000    -1.374000000    -2.655000000
O     0.984000000    -3.989000000    -1.809000000
H     0.898000000    -3.242000000    -2.402000000
H     0.334000000    -4.619000000    -2.122000000
O    -0.570000000     2.457000000     6.116000000
H    -0.983000000     1.623000000     6.340000000
H    -0.043000000     2.263000000     5.341000000
O    -4.960000000     1.328000000    -5.167000000
H    -5.388000000     0.906000000    -4.422000000
H    -4.519000000     0.614000000    -5.626000000
O    -0.620000000    -5.822000000     0.020000000
H    -0.917000000    -5.772000000    -0.888000000
H    -1.374000000    -5.535000000     0.535000000
O     3.168000000     2.714000000     2.186000000
H     3.779000000     3.281000000     1.715000000
H     3.338000000     1.839000000     1.837000000
O    -5.619000000    -3.561000000    -4.257000000
H    -6.100000000    -4.255000000    -3.806000000
H    -6.095000000    -3.433000000    -5.077000000
O    -4.393000000     2.367000000     1.849000000
H    -4.165000000     2.723000000     0.989000000
H    -4.898000000     1.578000000     1.655000000
O     1.965000000     5.867000000    -0.053000000
H     1.377000000     6.219000000     0.615000000
H     1.393000000     5.370000000    -0.638000000
O     6.375000000    -1.405000000    -0.792000000
H     7.326000000    -1.441000000    -0.902000000
H     6.168000000    -0.471000000    -0.801000000
O    -2.027000000    -3.197000000     2.388000000
H    -2.779000000    -3.118000000     2.975000000
H    -2.324000000    -3.787000000     1.695000000
O    -0.998000000    -5.411000000    -2.876000000
H    -1.678000000    -4.737000000    -2.871000000
H    -1.455000000    -6.211000000    -3.134000000
O     5.806000000    -1.552000000    -4.013000000
H     5.660000000    -2.068000000    -3.220000000
H     5.227000000    -0.795000000    -3.916000000
O    -4.424000000    -2.849000000     3.510000000
H    -4.121000000    -2.960000000     4.411000000
H    -5.182000000    -2.269000000     3.582000000
O    -3.406000000     1.629000000     4.400000000
H    -3.746000000     1.960000000     5.231000000
H    -4.080000000     1.854000000     3.758000000
O     0.443000000     3.838000000    -2.049000000
H    -0.069000000     3.588000000    -1.280000000
H    -0.188000000     3.835000000    -2.769000000
O     2.972000000     3.356000000    -2.263000000
H     2.029000000     3.523000000    -2.280000000
H     3.120000000     2.747000000    -2.987000000
O     3.013000000     0.540000000     4.042000000
H     3.040000000     0.896000000     4.930000000
H     3.119000000     1.304000000     3.475000000
O     0.796000000    -2.574000000     1.871000000
H     1.090000000    -2.186000000     1.046000000
H    -0.155000000    -2.466000000     1.861000000
O    -2.918000000     1.778000000    -2.408000000
H    -2.903000000     0.938000000    -2.866000000
H    -2.064000000     2.168000000    -2.595000000
O    -0.957000000     4.003000000     3.397000000
H    -1.712000000     3.458000000     3.618000000
H    -0.315000000     3.811000000     4.081000000
O     6.347000000     0.008000000     3.083000000
H     5.943000000     0.615000000     3.702000000
H     5.703000000    -0.082000000     2.381000000
O     3.069000000    -2.843000000     6.610000000
H     3.900000000    -2.605000000     7.022000000
H     3.146000000    -2.520000000     5.712000000
O     3.664000000     6.801000000     2.449000000
H     3.685000000     7.561000000     1.867000000
H     3.218000000     6.123000000     1.940000000
O    -5.378000000     1.849000000    -1.047000000
H    -4.577000000     1.918000000    -1.567000000
H    -5.570000000     0.911000000    -1.025000000
O     1.496000000     3.119000000     4.087000000
H     2.017000000     3.743000000     4.593000000
H     1.861000000     3.162000000     3.204000000
O    -1.816000000    -2.610000000     5.461000000
H    -1.414000000    -2.784000000     4.609000000
H    -2.306000000    -3.407000000     5.662000000
O     3.849000000     0.557000000    -3.514000000
H     3.920000000     1.120000000    -4.285000000
H     3.227000000    -0.123000000    -3.770000000
O     5.643000000     1.033000000    -1.185000000
H     5.404000000     0.907000000    -2.103000000
H     6.331000000     1.698000000    -1.205000000
O     2.275000000    -1.541000000    -3.843000000
H     1.333000000    -1.411000000    -3.730000000
H     2.364000000    -2.470000000    -4.056000000
O    -0.396000000    -6.139000000    -6.392000000
H    -0.398000000    -5.240000000    -6.063000000
H     0.257000000    -6.589000000    -5.856000000
O    -5.969000000    -0.140000000     2.087000000
H    -6.469000000     0.501000000     2.593000000
H    -6.549000000    -0.378000000     1.363000000
O    -3.207000000    -3.871000000    -2.686000000
H    -4.104000000    -3.663000000    -2.946000000
H    -2.772000000    -3.021000000    -2.628000000
O    -1.110000000     3.330000000    -4.222000000
H    -1.846000000     3.229000000    -4.826000000
H    -0.378000000     2.898000000    -4.662000000
O     3.817000000    -2.288000000     1.079000000
H     4.737000000    -2.458000000     0.875000000
H     3.353000000    -3.060000000     0.756000000
O    -4.537000000    -1.067000000    -1.259000000
H    -3.685000000    -1.074000000    -1.695000000
H    -5.172000000    -1.151000000    -1.970000000
O     4.561000000     4.668000000     0.075000000
H     4.253000000     4.050000000    -0.588000000
H     4.128000000     5.492000000    -0.146000000
O    -5.032000000    -2.800000000     0.506000000
H    -4.738000000    -2.490000000     1.363000000
H    -4.563000000    -2.250000000    -0.121000000
O    -1.589000000     0.027000000     6.295000000
H    -1.394000000    -0.895000000     6.460000000
H    -2.086000000     0.024000000     5.477000000
O    -0.268000000    -3.250000000    -5.628000000
H    -0.254000000    -2.771000000    -4.799000000
H    -1.142000000    -3.087000000    -5.984000000
O    -1.095000000     3.029000000     0.522000000
H    -0.611000000     2.920000000     1.340000000
H    -1.207000000     2.138000000     0.189000000
O    -3.037000000    -0.906000000    -5.426000000
H    -3.152000000    -1.754000000    -5.855000000
H    -2.743000000    -1.123000000    -4.541000000
O    -3.592000000    -5.239000000     0.630000000
H    -4.066000000    -4.461000000     0.335000000
H    -3.700000000    -5.870000000    -0.082000000
O     1.230000000     1.945000000    -4.827000000
H     2.032000000     2.231000000    -5.263000000
H     0.906000000     1.226000000    -5.369000000
O     1.666000000    -3.249000000    -7.760000000
H     2.561000000    -3.488000000    -7.521000000
H     1.183000000    -3.270000000    -6.933000000
O     3.575000000    -2.307000000     3.895000000
H     3.233000000    -1.417000000     3.972000000
H     3.751000000    -2.416000000     2.960000000
O    -1.568000000     0.747000000    -6.783000000
H    -0.749000000     0.271000000    -6.926000000
H    -2.027000000     0.239000000    -6.115000000
O    -6.212000000    -0.952000000    -3.452000000
H    -7.160000000    -0.978000000    -3.578000000
H    -5.898000000    -1.776000000    -3.824000000
O     4.187000000     0.433000000     0.919000000
H     3.841000000    -0.459000000     0.892000000
H     4.647000000     0.537000000     0.086000000
