158
-3044.69907
C     0.914000000    -0.141000000    -1.206000000
H     1.653000000    -0.171000000    -2.003000000
C     1.181000000     0.604000000    -0.069000000
H     2.156000000     1.063000000     0.069000000
C     0.262000000     0.619000000     1.016000000
H     0.579000000     1.132000000     1.924000000
C    -0.965000000    -0.095000000     0.910000000
H    -1.723000000     0.007000000     1.682000000
C    -1.203000000    -0.784000000    -0.217000000
H    -2.130000000    -1.347000000    -0.290000000
C    -0.287000000    -0.834000000    -1.292000000
C    -0.779000000    -1.430000000    -2.640000000
O    -0.078000000    -1.249000000    -3.613000000
O    -1.866000000    -1.851000000    -2.828000000
O     1.978000000    -2.898000000    -3.152000000
H     1.277000000    -2.263000000    -3.299000000
H     1.647000000    -3.463000000    -2.454000000
O     4.425000000    -0.076000000     6.887000000
H     5.125000000     0.374000000     7.361000000
H     4.403000000     0.350000000     6.030000000
O    -0.489000000     2.163000000     4.784000000
H    -1.432000000     2.322000000     4.740000000
H    -0.409000000     1.211000000     4.835000000
O    -5.674000000     0.989000000    -4.934000000
H    -4.830000000     0.539000000    -4.919000000
H    -6.120000000     0.686000000    -4.142000000
O    -3.134000000     3.434000000    -0.422000000
H    -3.306000000     4.375000000    -0.411000000
H    -2.261000000     3.344000000    -0.040000000
O     0.391000000    -5.326000000    -1.130000000
H     0.584000000    -5.646000000    -2.011000000
H    -0.500000000    -5.627000000    -0.955000000
O     5.565000000     1.996000000     0.924000000
H     5.263000000     1.803000000     0.037000000
H     6.436000000     2.374000000     0.803000000
O    -3.058000000     2.450000000     4.201000000
H    -3.640000000     2.713000000     4.914000000
H    -3.158000000     3.139000000     3.543000000
O     1.873000000     4.823000000     0.075000000
H     1.062000000     4.805000000     0.583000000
H     1.804000000     4.071000000    -0.513000000
O    -1.759000000    -5.420000000     2.299000000
H    -2.457000000    -5.530000000     2.945000000
H    -1.980000000    -4.607000000     1.844000000
O     0.388000000    -6.258000000    -3.642000000
H    -0.410000000    -5.752000000    -3.794000000
H     0.308000000    -7.013000000    -4.224000000
O     1.218000000     6.727000000     3.756000000
H     1.947000000     6.621000000     3.145000000
H     0.792000000     5.870000000     3.771000000
O     4.166000000    -1.488000000    -2.812000000
H     4.732000000    -2.080000000    -3.308000000
H     3.298000000    -1.889000000    -2.861000000
O    -5.025000000    -1.665000000     2.434000000
H    -5.361000000    -2.170000000     3.175000000
H    -5.490000000    -0.829000000     2.484000000
O    -2.895000000    -0.357000000     4.178000000
H    -3.637000000    -0.929000000     3.980000000
H    -3.230000000     0.528000000     4.034000000
O     1.804000000     2.910000000    -2.045000000
H     2.260000000     2.068000000    -2.056000000
H     1.241000000     2.887000000    -2.818000000
O     3.756000000     4.631000000    -3.226000000
H     3.064000000     4.100000000    -2.832000000
H     3.494000000     4.724000000    -4.142000000
O     4.486000000     1.129000000     4.136000000
H     3.601000000     1.342000000     4.431000000
H     4.366000000     0.409000000     3.517000000
O     1.434000000    -2.381000000     1.151000000
H     1.005000000    -1.641000000     0.720000000
H     0.806000000    -2.671000000     1.812000000
O     3.788000000    -4.396000000    -4.911000000
H     3.261000000    -4.014000000    -4.209000000
H     4.366000000    -5.016000000    -4.467000000
O    -2.303000000     2.646000000    -3.378000000
H    -2.638000000     1.772000000    -3.580000000
H    -2.404000000     2.728000000    -2.430000000
O     0.731000000     4.126000000     3.316000000
H     1.639000000     3.821000000     3.319000000
H     0.300000000     3.602000000     3.991000000
O    -3.175000000    -2.806000000    -6.180000000
H    -3.521000000    -3.263000000    -5.414000000
H    -3.373000000    -3.387000000    -6.915000000
O    -3.553000000     4.665000000     2.406000000
H    -3.123000000     5.387000000     1.946000000
H    -4.432000000     4.632000000     2.029000000
O     3.528000000    -2.135000000     5.430000000
H     3.989000000    -1.387000000     5.808000000
H     3.149000000    -1.799000000     4.618000000
O     4.791000000     4.564000000     0.616000000
H     3.842000000     4.616000000     0.502000000
H     4.942000000     3.691000000     0.978000000
O    -4.715000000     1.876000000     1.383000000
H    -4.036000000     1.215000000     1.521000000
H    -4.274000000     2.572000000     0.896000000
O     3.469000000     3.378000000     3.041000000
H     3.807000000     4.060000000     3.621000000
H     4.153000000     2.709000000     3.034000000
O     0.152000000    -3.461000000     3.400000000
H    -0.482000000    -4.177000000     3.438000000
H     0.588000000    -3.481000000     4.252000000
O    -4.785000000    -3.770000000    -4.332000000
H    -5.497000000    -4.392000000    -4.183000000
H    -4.757000000    -3.243000000    -3.534000000
O     4.621000000     0.006000000    -5.608000000
H     4.812000000    -0.335000000    -6.482000000
H     3.665000000     0.028000000    -5.563000000
O     1.716000000     0.066000000    -5.491000000
H     1.194000000    -0.198000000    -4.733000000
H     1.843000000    -0.742000000    -5.988000000
O    -6.117000000     0.376000000    -0.472000000
H    -5.783000000     0.890000000     0.263000000
H    -5.338000000    -0.026000000    -0.857000000
O    -1.708000000    -4.577000000    -3.743000000
H    -2.585000000    -4.798000000    -4.058000000
H    -1.745000000    -3.636000000    -3.571000000
O     2.084000000     1.206000000     5.864000000
H     1.832000000     0.368000000     6.252000000
H     1.520000000     1.848000000     6.296000000
O     0.413000000     2.434000000    -4.203000000
H    -0.508000000     2.506000000    -3.951000000
H     0.455000000     1.633000000    -4.726000000
O    -1.582000000     3.726000000     6.952000000
H    -0.738000000     3.475000000     6.576000000
H    -2.016000000     2.894000000     7.143000000
O     5.940000000    -2.268000000     0.466000000
H     6.248000000    -1.842000000    -0.334000000
H     5.559000000    -1.559000000     0.983000000
O    -4.389000000    -1.310000000    -1.795000000
H    -3.611000000    -1.487000000    -2.324000000
H    -5.105000000    -1.263000000    -2.428000000
O    -5.008000000    -3.262000000     0.226000000
H    -4.811000000    -2.908000000     1.093000000
H    -5.119000000    -2.490000000    -0.329000000
O    -0.177000000    -0.826000000     5.240000000
H    -0.130000000    -1.778000000     5.325000000
H    -1.014000000    -0.666000000     4.803000000
O    -0.730000000    -1.689000000    -6.027000000
H    -0.554000000    -1.652000000    -5.087000000
H    -1.426000000    -2.341000000    -6.115000000
O    -0.788000000     3.498000000     0.763000000
H    -0.399000000     3.814000000     1.578000000
H    -0.220000000     2.778000000     0.489000000
O    -3.028000000     0.119000000    -4.476000000
H    -2.750000000     0.198000000    -5.388000000
H    -2.795000000    -0.776000000    -4.230000000
O     2.638000000    -2.294000000    -6.483000000
H     3.255000000    -2.932000000    -6.124000000
H     1.953000000    -2.825000000    -6.889000000
O     3.122000000    -0.968000000     2.594000000
H     2.365000000    -0.414000000     2.782000000
H     2.835000000    -1.531000000     1.875000000
O    -1.626000000     0.455000000    -7.579000000
H    -1.219000000     0.414000000    -8.445000000
H    -1.186000000    -0.229000000    -7.075000000
O     4.514000000     0.994000000    -1.539000000
H     4.702000000     0.067000000    -1.687000000
H     4.566000000     1.391000000    -2.408000000
