158
-3018.59150
C     0.833000000     0.663000000    -1.042000000
H     1.546000000     1.031000000    -1.775000000
C     1.343000000     0.111000000     0.126000000
H     2.388000000     0.054000000     0.422000000
C     0.473000000    -0.504000000     1.001000000
H     0.833000000    -0.890000000     1.879000000
C    -0.942000000    -0.449000000     0.749000000
H    -1.619000000    -0.845000000     1.501000000
C    -1.455000000     0.104000000    -0.393000000
H    -2.533000000     0.118000000    -0.525000000
C    -0.567000000     0.676000000    -1.319000000
C    -1.100000000     1.267000000    -2.574000000
O    -0.430000000     2.053000000    -3.173000000
O    -2.227000000     1.110000000    -2.807000000
O    -2.923000000     0.890000000    -7.248000000
H    -3.729000000     0.839000000    -7.762000000
H    -2.302000000     1.340000000    -7.820000000
O     2.967000000    -0.895000000     3.872000000
H     2.491000000    -0.285000000     3.308000000
H     2.778000000    -0.597000000     4.761000000
O     1.411000000     2.180000000    -8.049000000
H     1.657000000     1.258000000    -8.123000000
H     1.496000000     2.378000000    -7.117000000
O    -5.840000000     3.174000000     2.054000000
H    -5.067000000     2.914000000     1.554000000
H    -5.675000000     4.087000000     2.293000000
O    -2.446000000    -2.241000000     6.890000000
H    -2.926000000    -1.457000000     6.624000000
H    -2.144000000    -2.628000000     6.069000000
O    -0.197000000     4.286000000     0.914000000
H    -0.905000000     3.683000000     1.140000000
H    -0.345000000     4.493000000    -0.009000000
O    -4.613000000    -0.337000000     0.962000000
H    -4.002000000    -1.065000000     1.079000000
H    -5.365000000    -0.565000000     1.509000000
O    -6.837000000     1.130000000    -1.957000000
H    -5.972000000     0.888000000    -1.625000000
H    -6.671000000     1.459000000    -2.840000000
O     3.969000000    -3.783000000    -1.799000000
H     3.492000000    -3.535000000    -1.007000000
H     3.829000000    -3.052000000    -2.401000000
O     5.641000000    -1.129000000     4.619000000
H     4.748000000    -1.081000000     4.280000000
H     5.539000000    -1.448000000     5.516000000
O     6.545000000     2.260000000     1.889000000
H     5.602000000     2.096000000     1.870000000
H     6.634000000     3.180000000     1.640000000
O    -5.972000000    -0.839000000     4.802000000
H    -6.188000000    -1.584000000     5.363000000
H    -5.342000000    -1.188000000     4.172000000
O     0.663000000    -3.493000000    -0.595000000
H     0.432000000    -4.098000000     0.110000000
H     1.208000000    -2.829000000    -0.172000000
O     1.571000000     6.101000000    -2.566000000
H     0.887000000     6.671000000    -2.916000000
H     1.995000000     5.732000000    -3.341000000
O     3.067000000    -3.113000000     0.797000000
H     3.704000000    -2.498000000     1.162000000
H     2.469000000    -3.296000000     1.522000000
O     4.952000000     1.347000000    -4.037000000
H     5.737000000     1.700000000    -3.617000000
H     4.914000000     0.436000000    -3.746000000
O     2.342000000     1.651000000     3.093000000
H     3.022000000     1.906000000     2.470000000
H     1.812000000     2.440000000     3.205000000
O    -3.406000000     2.858000000    -5.017000000
H    -2.908000000     2.475000000    -5.739000000
H    -3.006000000     2.492000000    -4.229000000
O    -4.905000000    -1.551000000    -2.637000000
H    -4.339000000    -2.253000000    -2.316000000
H    -4.748000000    -1.530000000    -3.581000000
O    -2.391000000     5.385000000    -3.216000000
H    -1.588000000     5.109000000    -2.774000000
H    -3.075000000     4.835000000    -2.834000000
O    -4.123000000     1.552000000    -0.944000000
H    -4.156000000     0.779000000    -0.380000000
H    -3.539000000     1.300000000    -1.661000000
O     0.286000000     2.767000000    -5.658000000
H    -0.250000000     3.555000000    -5.751000000
H    -0.005000000     2.376000000    -4.834000000
O     3.129000000    -1.635000000    -3.726000000
H     2.374000000    -2.169000000    -3.478000000
H     2.749000000    -0.824000000    -4.063000000
O     2.809000000    -0.536000000     6.420000000
H     2.456000000    -1.208000000     7.004000000
H     3.385000000    -0.013000000     6.978000000
O     2.291000000     0.974000000    -4.721000000
H     3.194000000     1.079000000    -4.421000000
H     1.947000000     1.866000000    -4.764000000
O    -2.091000000    -5.562000000     1.783000000
H    -2.279000000    -6.186000000     1.083000000
H    -2.467000000    -5.960000000     2.568000000
O    -1.610000000     4.775000000    -6.326000000
H    -1.062000000     5.258000000    -5.708000000
H    -2.286000000     4.370000000    -5.782000000
O    -4.091000000    -2.136000000     3.455000000
H    -3.886000000    -2.434000000     2.569000000
H    -3.464000000    -2.595000000     4.014000000
O     5.373000000    -5.036000000     0.629000000
H     6.009000000    -4.735000000     1.277000000
H     4.851000000    -4.260000000     0.426000000
O    -2.581000000    -3.555000000    -1.887000000
H    -1.878000000    -3.800000000    -1.285000000
H    -2.449000000    -4.118000000    -2.651000000
O    -0.080000000    -0.585000000    -5.269000000
H    -0.764000000    -0.017000000    -4.915000000
H     0.717000000    -0.057000000    -5.222000000
O     2.467000000     5.102000000    -0.025000000
H     1.561000000     4.792000000    -0.004000000
H     2.460000000     5.819000000    -0.659000000
O    -3.156000000    -3.006000000     1.181000000
H    -2.928000000    -2.717000000     0.298000000
H    -2.732000000    -3.860000000     1.271000000
O    -2.825000000     2.642000000     1.495000000
H    -2.765000000     1.988000000     0.798000000
H    -3.136000000     2.152000000     2.256000000
O    -6.315000000    -2.476000000    -0.162000000
H    -6.586000000    -1.894000000     0.548000000
H    -5.875000000    -1.900000000    -0.788000000
O     4.906000000     0.648000000    -0.374000000
H     5.027000000    -0.023000000     0.298000000
H     5.460000000     0.362000000    -1.100000000
O     0.605000000    -5.148000000     1.573000000
H    -0.268000000    -5.410000000     1.864000000
H     1.177000000    -5.358000000     2.311000000
O    -1.134000000    -2.467000000     4.369000000
H    -0.437000000    -2.882000000     3.861000000
H    -0.795000000    -1.595000000     4.572000000
O    -4.143000000     4.287000000    -1.300000000
H    -5.071000000     4.515000000    -1.359000000
H    -4.128000000     3.331000000    -1.342000000
O    -3.398000000    -0.368000000    -4.855000000
H    -3.143000000     0.237000000    -5.552000000
H    -3.298000000     0.138000000    -4.049000000
O     5.230000000    -1.579000000     1.709000000
H     6.055000000    -1.940000000     1.386000000
H     5.336000000    -1.553000000     2.660000000
O     0.702000000    -3.033000000    -3.210000000
H    -0.051000000    -2.447000000    -3.283000000
H     0.600000000    -3.449000000    -2.354000000
O     4.025000000     2.424000000     1.093000000
H     4.291000000     1.783000000     0.434000000
H     3.475000000     3.045000000     0.615000000
O     5.695000000     3.722000000    -2.376000000
H     4.830000000     3.319000000    -2.443000000
H     5.670000000     4.208000000    -1.552000000
O    -2.875000000     0.743000000     3.603000000
H    -3.561000000     0.079000000     3.527000000
H    -2.113000000     0.263000000     3.927000000
O     2.031000000    -3.709000000     3.436000000
H     2.532000000    -2.930000000     3.677000000
H     1.955000000    -4.208000000     4.249000000
O    -0.373000000     4.375000000    -1.838000000
H     0.428000000     4.801000000    -2.142000000
H    -0.304000000     3.477000000    -2.161000000
O    -0.384000000     0.214000000     4.638000000
H    -0.623000000     0.497000000     5.521000000
H     0.190000000     0.907000000     4.311000000
