158
-3037.73190
C    -0.295000000    -1.294000000    -0.637000000
H    -0.727000000    -2.160000000    -1.132000000
C    -1.191000000    -0.554000000     0.073000000
H    -2.182000000    -0.876000000     0.384000000
C    -0.864000000     0.618000000     0.623000000
H    -1.509000000     1.059000000     1.307000000
C     0.472000000     1.138000000     0.446000000
H     0.756000000     2.105000000     0.852000000
C     1.369000000     0.417000000    -0.266000000
H     2.375000000     0.811000000    -0.388000000
C     1.052000000    -0.856000000    -0.808000000
C     2.050000000    -1.765000000    -1.541000000
O     3.104000000    -1.321000000    -2.025000000
O     1.910000000    -2.972000000    -1.669000000
O     7.036000000    -4.415000000    -2.358000000
H     7.424000000    -3.920000000    -3.081000000
H     6.380000000    -3.824000000    -1.989000000
O    -0.656000000    -6.451000000    -3.119000000
H     0.010000000    -6.293000000    -3.789000000
H    -1.321000000    -6.978000000    -3.561000000
O    -6.423000000     3.871000000    -0.687000000
H    -5.763000000     4.456000000    -1.061000000
H    -6.308000000     3.955000000     0.259000000
O    -0.657000000     1.699000000    -2.517000000
H    -0.829000000     0.807000000    -2.216000000
H    -1.525000000     2.073000000    -2.669000000
O    -2.411000000    -4.106000000     1.015000000
H    -1.873000000    -4.641000000     0.432000000
H    -3.114000000    -3.774000000     0.457000000
O     1.298000000    -7.842000000    -1.546000000
H     0.800000000    -7.112000000    -1.913000000
H     1.556000000    -7.542000000    -0.674000000
O    -1.423000000     6.085000000     3.010000000
H    -2.137000000     5.919000000     3.625000000
H    -1.668000000     6.900000000     2.572000000
O     4.024000000    -4.633000000    -2.886000000
H     3.608000000    -4.107000000    -2.203000000
H     4.386000000    -3.990000000    -3.496000000
O     2.415000000     3.953000000    -0.895000000
H     1.702000000     4.512000000    -1.207000000
H     2.413000000     3.206000000    -1.493000000
O    -0.076000000     4.423000000    -2.084000000
H    -0.188000000     4.531000000    -3.028000000
H    -0.391000000     3.537000000    -1.905000000
O     1.579000000    -1.298000000    -5.629000000
H     1.207000000    -2.103000000    -5.267000000
H     2.444000000    -1.231000000    -5.224000000
O     1.187000000     2.407000000     5.128000000
H     1.770000000     2.859000000     4.519000000
H     1.419000000     2.759000000     5.987000000
O    -4.463000000    -2.151000000    -2.676000000
H    -3.901000000    -1.646000000    -3.263000000
H    -5.328000000    -2.117000000    -3.084000000
O    -2.386000000    -1.308000000     4.435000000
H    -3.286000000    -1.561000000     4.227000000
H    -1.847000000    -1.993000000     4.039000000
O    -1.657000000    -3.955000000     3.708000000
H    -1.676000000    -3.776000000     2.767000000
H    -2.351000000    -4.600000000     3.843000000
O     4.008000000    -6.126000000    -0.605000000
H     4.681000000    -6.003000000     0.063000000
H     4.342000000    -5.660000000    -1.371000000
O    -7.192000000     2.404000000     2.937000000
H    -6.382000000     2.461000000     3.444000000
H    -7.489000000     3.311000000     2.856000000
O    -1.715000000     5.145000000     0.338000000
H    -0.951000000     5.305000000    -0.216000000
H    -1.475000000     5.512000000     1.189000000
O    -4.568000000     3.717000000     1.711000000
H    -3.763000000     3.500000000     2.182000000
H    -4.536000000     4.668000000     1.606000000
O    -1.460000000     1.521000000     5.123000000
H    -0.506000000     1.587000000     5.168000000
H    -1.622000000     0.664000000     4.729000000
O     1.232000000    -1.809000000     2.133000000
H     0.813000000    -1.078000000     1.680000000
H     1.349000000    -1.500000000     3.031000000
O     3.726000000    -3.169000000     1.573000000
H     2.776000000    -3.201000000     1.464000000
H     3.931000000    -2.235000000     1.613000000
O    -1.613000000    -0.874000000     6.898000000
H    -1.831000000    -1.170000000     6.014000000
H    -0.744000000    -0.481000000     6.811000000
O     1.267000000    -4.866000000     2.716000000
H     1.075000000    -5.038000000     1.794000000
H     0.839000000    -4.030000000     2.898000000
O    -5.565000000     1.179000000     0.913000000
H    -6.183000000     1.347000000     1.624000000
H    -4.934000000     1.897000000     0.970000000
O     5.714000000     2.123000000     0.606000000
H     6.235000000     2.663000000     1.200000000
H     6.160000000     1.276000000     0.598000000
O     3.187000000     3.635000000     3.406000000
H     3.487000000     2.726000000     3.421000000
H     3.893000000     4.112000000     2.969000000
O     6.633000000     3.446000000    -1.673000000
H     6.079000000     3.161000000    -0.947000000
H     7.522000000     3.424000000    -1.319000000
O    -2.062000000    -1.032000000    -4.289000000
H    -2.215000000    -1.660000000    -4.995000000
H    -1.162000000    -0.735000000    -4.423000000
O     1.440000000    -5.181000000    -0.228000000
H     1.302000000    -4.379000000    -0.733000000
H     2.391000000    -5.277000000    -0.187000000
O     4.402000000    -2.651000000    -7.047000000
H     4.476000000    -2.026000000    -7.768000000
H     4.311000000    -2.106000000    -6.266000000
O     1.902000000     5.155000000     1.598000000
H     1.966000000     4.651000000     0.786000000
H     2.296000000     4.589000000     2.262000000
O     5.323000000    -2.609000000    -1.079000000
H     4.503000000    -2.143000000    -1.242000000
H     5.431000000    -2.580000000    -0.128000000
O    -3.586000000     2.874000000     6.604000000
H    -3.213000000     3.031000000     7.472000000
H    -2.838000000     2.621000000     6.064000000
O     1.946000000     2.150000000    -3.135000000
H     1.980000000     2.895000000    -3.735000000
H     1.012000000     2.008000000    -2.982000000
O    -3.307000000     2.574000000    -2.796000000
H    -3.468000000     3.330000000    -2.232000000
H    -3.684000000     1.835000000    -2.320000000
O     4.617000000     0.933000000    -6.011000000
H     3.873000000     1.430000000    -6.351000000
H     4.583000000     1.068000000    -5.064000000
O     4.070000000    -0.429000000     1.745000000
H     3.952000000    -0.160000000     2.656000000
H     4.417000000     0.348000000     1.308000000
O     6.656000000    -0.484000000    -2.119000000
H     6.243000000    -1.347000000    -2.086000000
H     5.933000000     0.132000000    -1.998000000
O     4.594000000    -1.728000000    -4.398000000
H     5.383000000    -1.236000000    -4.169000000
H     4.008000000    -1.602000000    -3.652000000
O     4.233000000     0.943000000    -2.889000000
H     3.888000000     0.176000000    -2.431000000
H     3.479000000     1.525000000    -2.984000000
O    -2.519000000     3.597000000     3.504000000
H    -1.908000000     4.168000000     3.037000000
H    -1.963000000     2.929000000     3.905000000
O    -4.538000000    -3.156000000    -0.261000000
H    -5.349000000    -3.654000000    -0.362000000
H    -4.315000000    -2.877000000    -1.149000000
O     0.870000000    -3.608000000    -3.923000000
H     1.090000000    -3.483000000    -3.000000000
H     1.017000000    -4.541000000    -4.080000000
O    -3.985000000     5.453000000    -1.156000000
H    -3.215000000     5.319000000    -0.604000000
H    -3.772000000     6.224000000    -1.682000000
O    -4.207000000     0.446000000    -1.363000000
H    -4.742000000     0.538000000    -0.574000000
H    -4.169000000    -0.498000000    -1.517000000
O    -5.178000000     3.243000000     4.537000000
H    -4.797000000     3.087000000     5.401000000
H    -4.425000000     3.293000000     3.948000000
O    -1.199000000    -5.881000000    -0.539000000
H    -1.227000000    -5.926000000    -1.495000000
H    -0.276000000    -6.009000000    -0.320000000
