158
-3023.73971
C     0.731000000     0.649000000    -1.035000000
H     1.321000000     1.238000000    -1.732000000
C     1.237000000     0.372000000     0.241000000
H     2.182000000     0.840000000     0.506000000
C     0.440000000    -0.325000000     1.141000000
H     0.772000000    -0.516000000     2.188000000
C    -0.778000000    -0.745000000     0.693000000
H    -1.366000000    -1.184000000     1.495000000
C    -1.241000000    -0.521000000    -0.616000000
H    -2.271000000    -0.817000000    -0.800000000
C    -0.489000000     0.219000000    -1.504000000
C    -0.979000000     0.527000000    -2.883000000
O    -0.376000000     1.295000000    -3.611000000
O    -2.043000000     0.099000000    -3.308000000
O     0.615000000    -6.085000000     1.997000000
H    -0.061000000    -6.219000000     1.332000000
H     0.761000000    -5.139000000     2.002000000
O    -0.952000000     2.580000000     6.473000000
H    -0.037000000     2.704000000     6.220000000
H    -1.454000000     2.899000000     5.723000000
O    -6.394000000     2.409000000     0.689000000
H    -5.943000000     1.697000000     0.235000000
H    -6.015000000     2.411000000     1.568000000
O     2.768000000     3.977000000    -5.735000000
H     2.326000000     3.653000000    -6.520000000
H     2.862000000     4.918000000    -5.884000000
O    -5.117000000     0.175000000    -0.436000000
H    -5.152000000    -0.678000000    -0.870000000
H    -4.586000000     0.718000000    -1.018000000
O    -3.434000000     3.703000000     1.968000000
H    -4.161000000     3.471000000     2.545000000
H    -2.895000000     2.912000000     1.932000000
O     5.049000000     1.248000000     1.350000000
H     4.807000000     0.332000000     1.214000000
H     5.460000000     1.262000000     2.214000000
O     5.880000000    -1.700000000    -2.174000000
H     6.302000000    -0.840000000    -2.185000000
H     4.943000000    -1.507000000    -2.140000000
O     0.389000000     3.660000000     1.199000000
H     0.315000000     4.599000000     1.367000000
H     1.031000000     3.352000000     1.839000000
O     3.177000000    -1.531000000    -2.219000000
H     2.562000000    -1.786000000    -1.531000000
H     2.675000000    -1.608000000    -3.030000000
O    -3.791000000    -1.895000000     3.986000000
H    -3.173000000    -2.492000000     3.565000000
H    -4.528000000    -1.845000000     3.378000000
O     1.256000000     3.523000000    -3.373000000
H     0.774000000     2.696000000    -3.356000000
H     1.877000000     3.424000000    -4.095000000
O    -0.970000000     3.579000000    -1.468000000
H    -0.522000000     3.080000000    -0.786000000
H    -0.293000000     3.755000000    -2.122000000
O     3.938000000    -0.918000000     6.265000000
H     4.504000000    -0.313000000     6.744000000
H     4.449000000    -1.726000000     6.204000000
O    -0.141000000    -3.720000000     0.954000000
H    -0.732000000    -3.965000000     0.242000000
H     0.216000000    -2.872000000     0.688000000
O    -4.041000000     1.352000000    -6.474000000
H    -4.573000000     0.663000000    -6.076000000
H    -3.275000000     1.423000000    -5.904000000
O    -1.227000000     5.458000000    -6.446000000
H    -0.436000000     5.168000000    -5.991000000
H    -1.947000000     5.141000000    -5.901000000
O    -5.354000000    -0.655000000    -4.919000000
H    -6.141000000    -0.111000000    -4.914000000
H    -5.683000000    -1.552000000    -4.967000000
O    -3.870000000     2.140000000    -1.855000000
H    -3.405000000     2.971000000    -1.757000000
H    -3.337000000     1.639000000    -2.472000000
O     1.444000000     3.124000000     4.937000000
H     1.932000000     3.947000000     4.946000000
H     1.907000000     2.578000000     4.302000000
O     1.786000000    -1.514000000     7.819000000
H     2.520000000    -1.357000000     7.225000000
H     1.300000000    -0.689000000     7.822000000
O    -4.495000000    -4.365000000    -2.738000000
H    -4.077000000    -3.761000000    -3.351000000
H    -4.372000000    -5.229000000    -3.132000000
O     2.938000000    -3.995000000     4.717000000
H     2.266000000    -3.439000000     4.320000000
H     2.463000000    -4.522000000     5.359000000
O     1.527000000     2.584000000    -7.719000000
H     1.179000000     1.816000000    -7.265000000
H     1.804000000     2.252000000    -8.573000000
O     2.759000000    -3.326000000     1.491000000
H     3.107000000    -3.868000000     0.783000000
H     1.846000000    -3.173000000     1.249000000
O    -4.353000000     1.078000000     3.141000000
H    -3.430000000     1.260000000     3.316000000
H    -4.361000000     0.697000000     2.263000000
O     2.754000000     1.956000000     3.065000000
H     3.505000000     1.656000000     2.554000000
H     2.413000000     1.163000000     3.478000000
O    -2.118000000    -3.667000000     2.863000000
H    -1.428000000    -3.789000000     2.212000000
H    -1.703000000    -3.891000000     3.697000000
O     3.115000000     0.297000000    -6.287000000
H     3.563000000    -0.454000000    -5.897000000
H     2.202000000     0.197000000    -6.017000000
O     1.245000000    -2.560000000    -4.177000000
H     1.255000000    -2.803000000    -3.251000000
H     0.419000000    -2.913000000    -4.509000000
O     1.012000000    -3.744000000    -1.706000000
H     1.502000000    -4.377000000    -1.181000000
H     0.094000000    -3.973000000    -1.561000000
O    -5.677000000    -1.788000000     2.111000000
H    -6.237000000    -1.509000000     1.386000000
H    -5.314000000    -2.626000000     1.824000000
O    -1.664000000    -3.936000000    -1.339000000
H    -2.174000000    -4.746000000    -1.314000000
H    -2.244000000    -3.300000000    -1.758000000
O     0.466000000    -1.908000000     5.135000000
H    -0.402000000    -1.512000000     5.068000000
H     0.379000000    -2.562000000     5.828000000
O    -1.978000000     2.934000000    -4.886000000
H    -1.899000000     3.743000000    -4.382000000
H    -1.322000000     2.350000000    -4.507000000
O    -5.165000000    -2.463000000    -0.970000000
H    -4.984000000    -2.962000000    -1.767000000
H    -5.178000000    -3.119000000    -0.274000000
O     4.123000000     4.382000000     1.597000000
H     3.658000000     5.199000000     1.779000000
H     3.524000000     3.696000000     1.891000000
O     2.385000000     6.311000000    -0.266000000
H     1.942000000     7.159000000    -0.303000000
H     1.832000000     5.729000000    -0.788000000
O    -4.515000000    -4.146000000     1.051000000
H    -4.617000000    -5.002000000     0.635000000
H    -3.794000000    -4.265000000     1.669000000
O    -1.816000000    -0.222000000     4.530000000
H    -2.500000000    -0.888000000     4.455000000
H    -2.030000000     0.252000000     5.333000000
O     0.330000000     0.364000000    -5.932000000
H    -0.162000000    -0.457000000    -5.932000000
H     0.168000000     0.741000000    -5.068000000
O    -1.680000000     1.817000000     2.766000000
H    -0.954000000     2.261000000     2.329000000
H    -1.269000000     1.088000000     3.232000000
O    -3.016000000    -2.190000000    -4.020000000
H    -3.660000000    -1.644000000    -4.471000000
H    -2.310000000    -1.586000000    -3.790000000
O     2.513000000    -0.471000000     4.138000000
H     1.725000000    -0.961000000     4.375000000
H     3.030000000    -0.446000000     4.943000000
O     5.256000000     3.057000000    -1.039000000
H     4.591000000     3.712000000    -0.826000000
H     5.330000000     2.525000000    -0.247000000
O    -1.245000000    -3.438000000    -5.890000000
H    -1.508000000    -3.180000000    -6.773000000
H    -1.785000000    -2.900000000    -5.312000000
O     4.380000000    -1.537000000     2.559000000
H     3.750000000    -2.127000000     2.146000000
H     3.887000000    -1.112000000     3.261000000
O     0.697000000     6.078000000    -2.698000000
H     0.991000000     5.204000000    -2.957000000
H     1.324000000     6.672000000    -3.110000000
