158
-3039.95598
C     0.272000000    -0.530000000    -1.311000000
H     0.587000000    -1.108000000    -2.176000000
C     1.119000000    -0.658000000    -0.268000000
H     2.083000000    -1.155000000    -0.338000000
C     0.730000000    -0.073000000     0.946000000
H     1.398000000    -0.192000000     1.767000000
C    -0.366000000     0.720000000     1.071000000
H    -0.569000000     1.239000000     2.004000000
C    -1.246000000     0.886000000    -0.069000000
H    -2.205000000     1.396000000    -0.026000000
C    -0.931000000     0.177000000    -1.263000000
C    -1.958000000     0.114000000    -2.400000000
O    -1.698000000    -0.247000000    -3.517000000
O    -3.153000000     0.340000000    -2.203000000
O    -2.563000000    -2.779000000    -4.364000000
H    -2.259000000    -1.872000000    -4.389000000
H    -2.787000000    -2.932000000    -3.445000000
O     5.999000000     2.289000000     1.981000000
H     6.784000000     2.825000000     1.866000000
H     5.450000000     2.504000000     1.227000000
O     1.411000000     0.850000000    -7.724000000
H     1.225000000    -0.089000000    -7.730000000
H     1.031000000     1.164000000    -6.904000000
O     6.175000000    -1.736000000     1.684000000
H     6.947000000    -1.870000000     1.133000000
H     5.616000000    -2.491000000     1.500000000
O     1.724000000     0.019000000     6.920000000
H     1.542000000     0.526000000     7.711000000
H     0.940000000    -0.515000000     6.792000000
O     1.448000000     2.580000000    -1.184000000
H     1.187000000     2.710000000    -2.096000000
H     1.019000000     1.764000000    -0.926000000
O     4.164000000     1.150000000     6.221000000
H     4.352000000     1.868000000     5.617000000
H     3.221000000     1.007000000     6.136000000
O     4.396000000    -3.759000000     0.884000000
H     4.480000000    -4.611000000     1.312000000
H     3.604000000    -3.836000000     0.352000000
O     4.629000000     0.032000000     3.013000000
H     5.048000000    -0.547000000     2.376000000
H     5.124000000     0.849000000     2.956000000
O    -4.686000000    -1.041000000    -0.616000000
H    -5.459000000    -1.018000000    -1.180000000
H    -3.962000000    -0.797000000    -1.193000000
O    -4.530000000     2.215000000     1.608000000
H    -4.162000000     2.380000000     2.476000000
H    -5.369000000     1.788000000     1.781000000
O     4.208000000     2.128000000    -0.310000000
H     4.279000000     1.236000000    -0.651000000
H     3.557000000     2.548000000    -0.872000000
O     4.884000000     2.994000000     4.543000000
H     5.183000000     3.086000000     3.638000000
H     4.079000000     3.511000000     4.583000000
O     1.850000000     2.574000000     4.110000000
H     1.274000000     3.199000000     3.669000000
H     1.779000000     1.774000000     3.589000000
O     0.001000000     4.680000000     0.060000000
H     0.309000000     3.990000000    -0.527000000
H    -0.936000000     4.751000000    -0.125000000
O     2.015000000    -3.875000000     3.476000000
H     2.565000000    -3.140000000     3.745000000
H     2.609000000    -4.460000000     3.007000000
O     1.726000000    -4.342000000     6.475000000
H     1.641000000    -4.139000000     5.544000000
H     1.260000000    -5.171000000     6.583000000
O    -3.909000000     4.877000000    -4.847000000
H    -4.782000000     4.620000000    -5.144000000
H    -3.470000000     4.049000000    -4.650000000
O    -2.404000000    -1.696000000    -7.947000000
H    -2.707000000    -2.263000000    -8.656000000
H    -3.208000000    -1.348000000    -7.560000000
O    -2.694000000     4.687000000    -0.612000000
H    -3.088000000     3.842000000    -0.825000000
H    -2.307000000     4.986000000    -1.435000000
O     3.296000000    -1.664000000     4.627000000
H     3.642000000    -1.325000000     5.453000000
H     3.581000000    -1.030000000     3.969000000
O     1.739000000    -4.163000000    -0.418000000
H     1.095000000    -4.582000000    -0.989000000
H     1.252000000    -3.954000000     0.379000000
O     0.333000000    -3.080000000     1.653000000
H     0.670000000    -3.191000000     2.542000000
H     0.180000000    -2.138000000     1.572000000
O    -5.356000000    -0.915000000    -3.561000000
H    -4.562000000    -0.577000000    -3.147000000
H    -5.039000000    -1.431000000    -4.302000000
O     2.971000000    -4.286000000    -4.055000000
H     2.303000000    -4.872000000    -3.699000000
H     2.733000000    -4.184000000    -4.977000000
O    -3.220000000     5.264000000     2.884000000
H    -3.221000000     4.312000000     2.985000000
H    -2.590000000     5.429000000     2.183000000
O    -4.146000000     2.596000000    -1.135000000
H    -4.019000000     1.772000000    -1.604000000
H    -4.225000000     2.340000000    -0.217000000
O     3.198000000     4.565000000     0.756000000
H     3.476000000     3.697000000     0.463000000
H     2.300000000     4.650000000     0.436000000
O     2.565000000     4.369000000     6.216000000
H     2.483000000     4.019000000     7.103000000
H     2.229000000     3.673000000     5.652000000
O    -0.833000000    -4.570000000    -5.597000000
H    -1.512000000    -4.167000000    -5.057000000
H    -0.885000000    -5.503000000    -5.391000000
O     2.005000000     2.495000000    -3.958000000
H     2.865000000     2.154000000    -4.206000000
H     1.925000000     3.316000000    -4.443000000
O     0.597000000     4.387000000     2.695000000
H     0.140000000     4.338000000     1.856000000
H     0.745000000     5.323000000     2.833000000
O    -7.170000000    -2.266000000    -1.748000000
H    -6.711000000    -1.976000000    -2.537000000
H    -8.096000000    -2.123000000    -1.943000000
O    -4.255000000    -0.978000000     2.851000000
H    -4.589000000    -0.090000000     2.977000000
H    -4.199000000    -1.081000000     1.901000000
O     0.085000000    -1.448000000    -6.923000000
H    -0.122000000    -1.777000000    -6.049000000
H    -0.757000000    -1.430000000    -7.378000000
O    -5.020000000    -3.984000000    -0.059000000
H    -5.233000000    -3.128000000    -0.431000000
H    -5.864000000    -4.431000000     0.012000000
O    -3.163000000     2.764000000     3.850000000
H    -2.550000000     2.397000000     4.487000000
H    -4.028000000     2.591000000     4.224000000
O     0.836000000    -5.307000000    -2.835000000
H     0.508000000    -6.112000000    -3.234000000
H     0.049000000    -4.850000000    -2.537000000
O    -5.329000000     4.873000000     0.641000000
H    -4.457000000     5.071000000     0.299000000
H    -5.240000000     4.008000000     1.040000000
O    -2.952000000     2.112000000    -4.732000000
H    -2.853000000     1.512000000    -3.993000000
H    -2.509000000     1.673000000    -5.458000000
O    -0.098000000     1.313000000    -5.132000000
H    -0.572000000     0.695000000    -4.576000000
H     0.643000000     1.597000000    -4.596000000
O    -6.339000000     1.516000000    -3.540000000
H    -6.439000000     0.628000000    -3.198000000
H    -5.646000000     1.442000000    -4.197000000
O     5.071000000    -0.261000000    -0.747000000
H     5.303000000    -0.419000000     0.168000000
H     4.955000000    -1.135000000    -1.120000000
O     0.530000000    -1.067000000     4.227000000
H     1.408000000    -1.151000000     4.600000000
H    -0.033000000    -1.555000000     4.828000000
O    -0.255000000    -1.806000000     6.893000000
H     0.427000000    -2.326000000     7.318000000
H    -1.056000000    -2.028000000     7.367000000
O     3.757000000    -2.768000000    -2.032000000
H     3.057000000    -2.753000000    -1.379000000
H     3.476000000    -3.425000000    -2.668000000
O    -5.817000000     4.022000000    -2.503000000
H    -5.240000000     3.644000000    -1.839000000
H    -6.038000000     3.288000000    -3.075000000
O    -1.250000000     1.117000000     5.086000000
H    -1.760000000     0.448000000     5.543000000
H    -0.591000000     0.623000000     4.598000000
