158
-3050.29361
C     0.067000000    -1.122000000    -0.991000000
H     0.326000000    -2.009000000    -1.564000000
C     0.928000000    -0.829000000     0.072000000
H     1.662000000    -1.606000000     0.272000000
C     0.781000000     0.257000000     0.938000000
H     1.518000000     0.555000000     1.687000000
C    -0.271000000     1.097000000     0.788000000
H    -0.458000000     1.962000000     1.419000000
C    -1.236000000     0.750000000    -0.204000000
H    -2.110000000     1.393000000    -0.268000000
C    -1.021000000    -0.278000000    -1.162000000
C    -1.970000000    -0.525000000    -2.419000000
O    -1.519000000    -1.073000000    -3.461000000
O    -3.075000000     0.021000000    -2.362000000
O    -4.178000000    -3.473000000    -0.848000000
H    -4.404000000    -2.964000000    -0.070000000
H    -4.460000000    -2.927000000    -1.582000000
O    -4.942000000    -2.317000000    -5.244000000
H    -5.286000000    -2.440000000    -6.129000000
H    -4.040000000    -2.634000000    -5.292000000
O    -1.180000000     0.360000000    -8.006000000
H    -1.867000000     0.348000000    -8.672000000
H    -1.583000000     0.794000000    -7.253000000
O     2.181000000     4.739000000     3.306000000
H     1.822000000     4.169000000     3.986000000
H     2.982000000     5.095000000     3.690000000
O     3.941000000    -3.403000000     2.892000000
H     4.053000000    -3.663000000     1.977000000
H     4.392000000    -2.561000000     2.958000000
O    -5.416000000     3.886000000     1.495000000
H    -6.087000000     4.568000000     1.526000000
H    -5.380000000     3.546000000     2.388000000
O    -7.332000000    -0.830000000    -3.959000000
H    -7.828000000    -0.908000000    -3.144000000
H    -6.673000000    -1.521000000    -3.905000000
O    -4.312000000    -1.484000000     1.368000000
H    -4.545000000    -0.574000000     1.181000000
H    -3.447000000    -1.430000000     1.776000000
O    -0.860000000     2.656000000    -4.419000000
H     0.090000000     2.549000000    -4.447000000
H    -1.205000000     1.811000000    -4.708000000
O    -1.604000000     1.460000000     4.270000000
H    -0.796000000     1.227000000     4.727000000
H    -1.399000000     2.280000000     3.821000000
O     1.464000000     0.008000000    -7.318000000
H     1.664000000    -0.817000000    -6.875000000
H     0.510000000     0.072000000    -7.288000000
O    -5.949000000     1.939000000    -3.619000000
H    -6.655000000     2.543000000    -3.848000000
H    -6.383000000     1.094000000    -3.504000000
O    -2.910000000     5.289000000     1.136000000
H    -2.207000000     4.667000000     1.319000000
H    -3.715000000     4.796000000     1.298000000
O     2.729000000    -1.685000000     4.667000000
H     3.562000000    -1.721000000     5.138000000
H     2.838000000    -2.297000000     3.939000000
O     1.049000000    -0.980000000    -4.405000000
H     1.197000000    -0.074000000    -4.675000000
H     0.156000000    -0.985000000    -4.062000000
O    -1.759000000    -0.758000000     2.716000000
H    -0.988000000    -0.716000000     2.150000000
H    -1.769000000     0.085000000     3.170000000
O    -0.708000000     6.293000000    -0.971000000
H    -1.252000000     5.556000000    -1.249000000
H    -1.221000000     6.727000000    -0.289000000
O     1.804000000     2.411000000     4.771000000
H     1.329000000     2.784000000     5.513000000
H     1.664000000     1.467000000     4.846000000
O    -3.922000000     2.321000000    -1.963000000
H    -3.544000000     1.463000000    -2.154000000
H    -4.722000000     2.353000000    -2.487000000
O    -1.718000000     4.139000000    -2.247000000
H    -2.460000000     3.543000000    -2.148000000
H    -1.308000000     3.876000000    -3.071000000
O     5.586000000     0.181000000     0.094000000
H     6.051000000     0.681000000     0.765000000
H     5.010000000     0.821000000    -0.324000000
O     0.545000000    -4.134000000    -3.253000000
H     1.082000000    -3.656000000    -2.620000000
H    -0.343000000    -4.084000000    -2.899000000
O    -1.423000000     3.876000000     3.144000000
H    -1.959000000     4.176000000     3.877000000
H    -0.944000000     4.656000000     2.862000000
O    -1.998000000    -4.502000000    -2.197000000
H    -2.623000000    -4.096000000    -1.597000000
H    -1.955000000    -5.416000000    -1.917000000
O     4.044000000     2.239000000    -1.272000000
H     3.873000000     2.692000000    -0.446000000
H     3.205000000     2.258000000    -1.734000000
O     6.878000000     1.242000000     2.364000000
H     7.472000000     1.914000000     2.029000000
H     7.014000000     1.253000000     3.312000000
O     2.119000000     2.052000000    -4.511000000
H     1.853000000     2.096000000    -3.592000000
H     2.745000000     2.769000000    -4.613000000
O     0.020000000     3.377000000     6.506000000
H    -0.896000000     3.535000000     6.278000000
H     0.006000000     3.204000000     7.447000000
O    -4.768000000     0.978000000     0.482000000
H    -4.907000000     1.913000000     0.631000000
H    -4.472000000     0.922000000    -0.427000000
O     1.464000000    -6.402000000    -4.255000000
H     2.237000000    -6.257000000    -4.801000000
H     1.307000000    -5.557000000    -3.834000000
O     0.401000000     5.739000000     1.747000000
H     1.012000000     5.250000000     2.297000000
H     0.959000000     6.309000000     1.217000000
O     3.912000000    -5.618000000     1.315000000
H     3.089000000    -5.147000000     1.188000000
H     3.646000000    -6.507000000     1.552000000
O    -3.721000000     4.193000000    -4.777000000
H    -3.749000000     3.241000000    -4.873000000
H    -4.631000000     4.445000000    -4.624000000
O     3.110000000     5.701000000     0.323000000
H     3.058000000     4.754000000     0.456000000
H     4.037000000     5.909000000     0.438000000
O     0.768000000     0.033000000     5.637000000
H     1.370000000    -0.662000000     5.372000000
H     0.949000000     0.166000000     6.567000000
O     1.269000000     2.027000000    -1.790000000
H     0.917000000     1.251000000    -1.355000000
H     0.779000000     2.757000000    -1.413000000
O     5.509000000    -4.105000000    -0.194000000
H     5.042000000    -4.771000000     0.311000000
H     5.077000000    -4.104000000    -1.048000000
O     1.503000000    -4.423000000     0.915000000
H     1.050000000    -3.941000000     1.607000000
H     0.864000000    -5.070000000     0.616000000
O     4.098000000    -4.488000000    -2.933000000
H     3.388000000    -3.849000000    -2.994000000
H     4.872000000    -4.017000000    -3.239000000
O     3.665000000     2.937000000     1.529000000
H     3.028000000     3.248000000     2.172000000
H     4.247000000     2.362000000     2.026000000
O    -2.203000000     0.560000000    -5.437000000
H    -3.070000000     0.477000000    -5.836000000
H    -2.191000000    -0.106000000    -4.750000000
O    -4.969000000    -1.926000000    -2.672000000
H    -4.550000000    -1.092000000    -2.458000000
H    -4.920000000    -1.980000000    -3.626000000
O     0.098000000    -3.387000000    -6.121000000
H    -0.285000000    -2.762000000    -5.506000000
H     0.129000000    -4.212000000    -5.636000000
O    -0.562000000    -3.063000000     3.416000000
H    -0.363000000    -3.082000000     4.353000000
H    -1.056000000    -2.253000000     3.293000000
O     4.196000000     1.452000000     4.095000000
H     3.354000000     1.842000000     4.329000000
H     4.839000000     1.954000000     4.595000000
O     4.979000000    -0.957000000     2.767000000
H     5.336000000    -0.561000000     1.972000000
H     4.783000000    -0.213000000     3.337000000
O     2.754000000    -2.260000000    -2.680000000
H     2.366000000    -1.730000000    -3.376000000
H     2.957000000    -1.633000000    -1.986000000
O    -2.384000000    -3.069000000    -4.580000000
H    -2.000000000    -2.269000000    -4.223000000
H    -2.290000000    -3.714000000    -3.879000000
