158
-3057.99546
C    -0.119000000    -0.671000000    -1.324000000
H    -0.283000000    -1.255000000    -2.225000000
C     0.850000000    -0.957000000    -0.378000000
H     1.557000000    -1.704000000    -0.728000000
C     0.939000000    -0.194000000     0.796000000
H     1.783000000    -0.238000000     1.452000000
C     0.018000000     0.844000000     1.066000000
H     0.268000000     1.570000000     1.835000000
C    -1.043000000     1.089000000     0.157000000
H    -1.647000000     1.984000000     0.278000000
C    -1.100000000     0.314000000    -1.049000000
C    -2.289000000     0.520000000    -2.002000000
O    -2.494000000    -0.427000000    -2.785000000
O    -3.032000000     1.486000000    -1.901000000
O     1.036000000    -3.149000000     3.991000000
H     0.196000000    -3.044000000     3.544000000
H     1.140000000    -2.342000000     4.496000000
O    -4.718000000     1.660000000     3.648000000
H    -5.206000000     2.061000000     2.928000000
H    -4.145000000     1.022000000     3.222000000
O     4.991000000     2.183000000     2.134000000
H     4.920000000     1.454000000     1.518000000
H     4.647000000     2.937000000     1.654000000
O    -0.398000000     4.788000000     1.112000000
H    -1.348000000     4.688000000     1.180000000
H    -0.230000000     4.847000000     0.171000000
O    -5.297000000     2.116000000     1.057000000
H    -5.615000000     1.253000000     0.793000000
H    -5.118000000     2.568000000     0.232000000
O    -0.542000000    -2.644000000     1.410000000
H    -0.386000000    -3.428000000     0.884000000
H    -0.241000000    -1.921000000     0.859000000
O     5.177000000    -2.691000000    -0.716000000
H     6.036000000    -2.916000000    -1.074000000
H     4.688000000    -2.348000000    -1.464000000
O     3.053000000     1.584000000     4.013000000
H     2.454000000     2.171000000     3.550000000
H     3.847000000     1.584000000     3.480000000
O    -7.208000000     1.876000000    -1.771000000
H    -7.395000000     1.300000000    -1.030000000
H    -7.884000000     2.552000000    -1.726000000
O     5.064000000    -4.509000000     1.109000000
H     4.953000000    -3.635000000     0.735000000
H     5.202000000    -4.354000000     2.043000000
O    -3.097000000    -3.331000000     0.883000000
H    -2.270000000    -2.964000000     1.193000000
H    -3.738000000    -2.635000000     1.028000000
O    -5.345000000     1.766000000    -3.827000000
H    -4.513000000     1.655000000    -3.366000000
H    -5.999000000     1.823000000    -3.131000000
O     5.027000000    -1.151000000     5.789000000
H     4.883000000    -0.211000000     5.893000000
H     5.893000000    -1.304000000     6.167000000
O     0.108000000    -2.530000000    -4.646000000
H     0.526000000    -1.670000000    -4.608000000
H    -0.313000000    -2.553000000    -5.505000000
O    -1.117000000    -5.174000000     4.105000000
H    -0.225000000    -4.834000000     4.182000000
H    -1.273000000    -5.625000000     4.934000000
O    -2.782000000     4.341000000     2.313000000
H    -3.430000000     3.639000000     2.370000000
H    -2.019000000     4.002000000     2.782000000
O     1.246000000    -0.686000000     5.435000000
H     0.896000000    -0.164000000     6.157000000
H     1.714000000    -0.055000000     4.888000000
O    -4.043000000     1.427000000    -6.607000000
H    -4.477000000     1.408000000    -5.754000000
H    -3.823000000     0.513000000    -6.785000000
O    -5.086000000    -0.939000000    -2.448000000
H    -4.184000000    -0.618000000    -2.433000000
H    -5.562000000    -0.292000000    -2.969000000
O     0.666000000     4.592000000    -1.474000000
H     0.413000000     4.333000000    -2.360000000
H     1.210000000     3.870000000    -1.160000000
O     4.962000000    -0.728000000     1.174000000
H     4.783000000    -1.210000000     1.982000000
H     5.125000000    -1.408000000     0.521000000
O    -4.446000000     4.759000000    -3.961000000
H    -5.189000000     4.403000000    -4.449000000
H    -3.675000000     4.436000000    -4.428000000
O    -4.998000000    -3.932000000    -1.569000000
H    -4.096000000    -3.662000000    -1.398000000
H    -5.529000000    -3.187000000    -1.285000000
O     0.208000000    -3.928000000    -0.963000000
H     0.224000000    -4.289000000    -1.849000000
H     0.723000000    -4.545000000    -0.443000000
O    -2.359000000    -2.511000000     4.300000000
H    -1.993000000    -3.363000000     4.064000000
H    -3.130000000    -2.720000000     4.828000000
O     1.447000000     2.409000000    -3.826000000
H     1.848000000     3.089000000    -3.284000000
H     0.513000000     2.459000000    -3.622000000
O     4.141000000     1.944000000     6.340000000
H     3.718000000     1.547000000     5.579000000
H     3.520000000     2.608000000     6.640000000
O    -5.150000000    -1.265000000     0.764000000
H    -5.615000000    -0.575000000     0.290000000
H    -5.844000000    -1.818000000     1.124000000
O     3.557000000     5.382000000     3.582000000
H     2.998000000     5.458000000     4.355000000
H     3.340000000     4.527000000     3.212000000
O     3.358000000    -2.093000000    -2.979000000
H     2.548000000    -2.585000000    -3.114000000
H     3.164000000    -1.217000000    -3.314000000
O    -1.084000000     3.122000000    -3.337000000
H    -1.924000000     2.843000000    -2.973000000
H    -1.317000000     3.716000000    -4.050000000
O     1.910000000     3.502000000     2.386000000
H     2.456000000     3.474000000     1.601000000
H     1.115000000     3.957000000     2.109000000
O     2.212000000    -2.518000000     7.483000000
H     1.990000000    -1.671000000     7.095000000
H     2.912000000    -2.320000000     8.105000000
O     2.107000000     2.484000000    -0.820000000
H     1.385000000     1.870000000    -0.686000000
H     2.890000000     1.934000000    -0.830000000
O    -2.581000000    -0.194000000     2.585000000
H    -2.784000000    -0.963000000     3.119000000
H    -2.141000000    -0.549000000     1.812000000
O    -4.536000000    -1.304000000    -6.936000000
H    -4.467000000    -1.776000000    -6.106000000
H    -5.317000000    -0.760000000    -6.837000000
O    -1.604000000     2.231000000     3.851000000
H    -1.516000000     1.322000000     3.563000000
H    -1.915000000     2.167000000     4.754000000
O    -0.039000000    -4.948000000    -3.722000000
H     0.030000000    -4.141000000    -4.231000000
H    -0.960000000    -4.990000000    -3.464000000
O     5.365000000     1.275000000    -0.837000000
H     5.991000000     0.729000000    -1.313000000
H     5.257000000     0.835000000     0.006000000
O    -1.010000000    -0.025000000    -5.434000000
H    -1.413000000    -0.120000000    -4.571000000
H    -0.819000000     0.910000000    -5.507000000
O    -4.276000000    -2.815000000    -4.405000000
H    -3.409000000    -2.688000000    -4.020000000
H    -4.886000000    -2.623000000    -3.693000000
O     2.295000000    -5.549000000     3.615000000
H     1.976000000    -4.721000000     3.972000000
H     2.545000000    -6.061000000     4.384000000
O    -4.337000000     3.671000000    -1.435000000
H    -3.810000000     2.881000000    -1.553000000
H    -4.379000000     4.063000000    -2.307000000
O     4.239000000    -2.115000000     3.237000000
H     3.604000000    -2.828000000     3.307000000
H     4.600000000    -2.029000000     4.119000000
O     2.000000000    -0.241000000    -4.427000000
H     1.902000000     0.705000000    -4.313000000
H     2.453000000    -0.334000000    -5.265000000
O     3.509000000    -5.643000000    -0.774000000
H     4.109000000    -5.307000000    -0.108000000
H     2.756000000    -5.964000000    -0.277000000
O    -1.821000000     0.030000000     5.995000000
H    -2.321000000    -0.423000000     6.675000000
H    -1.682000000    -0.632000000     5.318000000
O    -2.313000000    -3.178000000    -1.984000000
H    -2.208000000    -2.255000000    -2.214000000
H    -1.627000000    -3.343000000    -1.337000000
