158
-3041.11103
C     0.181000000    -0.725000000    -1.287000000
H     0.334000000    -1.371000000    -2.147000000
C     0.880000000    -1.018000000    -0.144000000
H     1.656000000    -1.775000000    -0.073000000
C     0.617000000    -0.320000000     0.973000000
H     1.186000000    -0.512000000     1.884000000
C    -0.241000000     0.767000000     0.974000000
H    -0.321000000     1.353000000     1.887000000
C    -0.980000000     1.078000000    -0.161000000
H    -1.589000000     1.979000000    -0.186000000
C    -0.817000000     0.245000000    -1.320000000
C    -1.590000000     0.554000000    -2.591000000
O    -1.902000000    -0.363000000    -3.287000000
O    -2.213000000     1.571000000    -2.737000000
O    -3.188000000     4.421000000    -5.731000000
H    -3.046000000     3.692000000    -6.334000000
H    -2.981000000     5.201000000    -6.245000000
O    -2.299000000    -4.861000000    -4.207000000
H    -2.242000000    -4.075000000    -3.663000000
H    -2.410000000    -5.577000000    -3.583000000
O    -0.566000000     6.715000000    -1.067000000
H    -1.272000000     6.277000000    -0.592000000
H    -0.127000000     6.012000000    -1.546000000
O     3.930000000     3.553000000     1.365000000
H     4.285000000     3.178000000     0.559000000
H     4.505000000     4.292000000     1.559000000
O    -2.983000000    -0.512000000     1.856000000
H    -3.442000000     0.321000000     1.744000000
H    -2.123000000    -0.366000000     1.461000000
O     5.391000000    -1.476000000    -0.305000000
H     6.272000000    -1.320000000    -0.645000000
H     5.489000000    -2.232000000     0.274000000
O     2.692000000     2.362000000     3.971000000
H     1.922000000     2.931000000     3.968000000
H     3.056000000     2.448000000     3.090000000
O     5.327000000    -2.903000000     2.239000000
H     5.756000000    -3.168000000     3.053000000
H     4.742000000    -2.190000000     2.498000000
O     1.568000000     1.279000000     6.497000000
H     2.393000000     1.152000000     6.967000000
H     1.448000000     2.229000000     6.478000000
O    -4.220000000     1.784000000     1.359000000
H    -4.761000000     2.525000000     1.633000000
H    -4.386000000     1.701000000     0.420000000
O     0.440000000     3.730000000     3.440000000
H     0.464000000     4.083000000     2.551000000
H    -0.410000000     3.294000000     3.503000000
O    -5.223000000     3.472000000    -4.143000000
H    -4.594000000     4.008000000    -4.625000000
H    -5.407000000     3.974000000    -3.349000000
O     0.783000000    -3.660000000    -4.995000000
H     0.360000000    -2.807000000    -5.098000000
H     1.347000000    -3.741000000    -5.765000000
O     0.237000000    -3.336000000     3.945000000
H     0.148000000    -2.393000000     4.079000000
H     0.183000000    -3.709000000     4.826000000
O    -2.261000000     5.410000000     1.416000000
H    -2.601000000     4.865000000     0.706000000
H    -2.251000000     4.832000000     2.178000000
O     0.585000000    -0.482000000     4.645000000
H     1.086000000     0.088000000     5.229000000
H    -0.234000000    -0.009000000     4.493000000
O    -2.669000000     2.444000000    -7.408000000
H    -2.629000000     1.716000000    -6.789000000
H    -3.337000000     2.183000000    -8.042000000
O    -3.554000000     1.375000000    -5.093000000
H    -2.983000000     1.025000000    -4.410000000
H    -4.068000000     2.052000000    -4.653000000
O     0.836000000     4.420000000    -2.208000000
H     0.269000000     4.040000000    -2.880000000
H     1.724000000     4.214000000    -2.500000000
O     5.601000000     0.612000000     1.541000000
H     4.863000000     0.517000000     2.142000000
H     5.665000000    -0.238000000     1.104000000
O    -4.863000000    -2.309000000    -1.087000000
H    -4.003000000    -2.721000000    -1.167000000
H    -5.060000000    -1.993000000    -1.969000000
O     0.033000000    -4.457000000    -0.170000000
H     0.387000000    -5.311000000     0.078000000
H     0.294000000    -3.873000000     0.542000000
O     1.517000000     3.225000000    -6.179000000
H     1.780000000     2.305000000    -6.207000000
H     0.617000000     3.207000000    -5.853000000
O    -1.727000000    -5.339000000     2.743000000
H    -1.133000000    -4.603000000     2.602000000
H    -2.598000000    -4.943000000     2.769000000
O     3.706000000    -1.242000000    -2.729000000
H     4.244000000    -1.406000000    -1.955000000
H     3.162000000    -0.492000000    -2.489000000
O    -4.900000000     0.653000000    -7.466000000
H    -4.485000000     0.946000000    -6.654000000
H    -5.451000000    -0.083000000    -7.200000000
O     4.695000000     3.294000000     5.674000000
H     4.045000000     2.854000000     5.127000000
H     4.183000000     3.891000000     6.221000000
O    -0.041000000     0.195000000    -7.809000000
H    -0.629000000    -0.375000000    -8.305000000
H    -0.351000000     0.131000000    -6.906000000
O    -4.846000000     1.611000000    -1.578000000
H    -5.360000000     0.980000000    -2.083000000
H    -3.987000000     1.610000000    -1.999000000
O     4.431000000    -3.592000000    -4.326000000
H     4.054000000    -2.756000000    -4.053000000
H     3.888000000    -3.870000000    -5.063000000
O     5.266000000    -4.520000000    -0.047000000
H     5.118000000    -3.936000000     0.696000000
H     5.685000000    -5.292000000     0.335000000
O    -0.788000000     3.401000000    -4.151000000
H    -1.179000000     2.573000000    -3.871000000
H    -1.427000000     3.774000000    -4.758000000
O     0.808000000     4.193000000     0.643000000
H     1.520000000     3.571000000     0.792000000
H     1.018000000     4.600000000    -0.198000000
O     2.774000000     1.301000000    -1.952000000
H     2.819000000     2.108000000    -2.465000000
H     3.338000000     1.465000000    -1.197000000
O    -7.153000000     2.796000000    -0.944000000
H    -7.797000000     2.432000000    -1.552000000
H    -6.307000000     2.523000000    -1.300000000
O    -1.849000000     0.399000000     4.574000000
H    -1.940000000     1.295000000     4.248000000
H    -2.280000000    -0.141000000     3.912000000
O    -3.682000000    -2.417000000    -6.210000000
H    -4.120000000    -2.211000000    -5.385000000
H    -4.386000000    -2.719000000    -6.785000000
O     2.237000000    -5.077000000     3.186000000
H     1.551000000    -4.430000000     3.348000000
H     2.836000000    -4.981000000     3.927000000
O    -2.480000000     3.868000000     3.381000000
H    -3.359000000     3.522000000     3.538000000
H    -2.275000000     4.366000000     4.173000000
O     1.030000000    -5.307000000    -2.906000000
H     0.707000000    -4.799000000    -2.162000000
H     0.746000000    -4.812000000    -3.675000000
O     5.099000000     1.982000000    -0.904000000
H     5.478000000     1.438000000    -0.215000000
H     5.852000000     2.287000000    -1.411000000
O    -0.893000000    -1.419000000    -5.569000000
H    -0.971000000    -0.984000000    -4.720000000
H    -1.778000000    -1.728000000    -5.761000000
O    -4.512000000    -1.159000000    -3.649000000
H    -3.638000000    -0.773000000    -3.588000000
H    -5.069000000    -0.444000000    -3.955000000
O    -2.835000000     3.987000000    -0.777000000
H    -2.352000000     4.340000000    -1.525000000
H    -3.188000000     3.155000000    -1.091000000
O     3.675000000    -0.796000000     3.399000000
H     2.784000000    -0.991000000     3.689000000
H     4.125000000    -0.500000000     4.190000000
O     2.515000000    -6.261000000     0.281000000
H     3.302000000    -6.055000000    -0.224000000
H     2.563000000    -5.686000000     1.045000000
O    -0.975000000     0.228000000     7.324000000
H    -1.482000000     0.363000000     6.524000000
H    -0.062000000     0.285000000     7.042000000
O    -2.335000000    -3.140000000    -1.720000000
H    -1.981000000    -2.282000000    -1.955000000
H    -1.731000000    -3.474000000    -1.056000000
