158
-3036.02947
C     0.009000000    -1.146000000    -1.008000000
H     0.126000000    -2.022000000    -1.642000000
C     0.989000000    -0.934000000    -0.062000000
H     1.720000000    -1.705000000     0.169000000
C     0.928000000     0.128000000     0.765000000
H     1.727000000     0.193000000     1.524000000
C    -0.086000000     1.045000000     0.625000000
H    -0.006000000     1.903000000     1.289000000
C    -1.133000000     0.825000000    -0.227000000
H    -1.974000000     1.509000000    -0.145000000
C    -1.119000000    -0.225000000    -1.136000000
C    -2.283000000    -0.391000000    -2.120000000
O    -2.376000000    -1.420000000    -2.746000000
O    -3.101000000     0.484000000    -2.239000000
O    -0.642000000    -2.473000000     5.907000000
H    -0.091000000    -2.431000000     6.689000000
H    -1.008000000    -1.593000000     5.824000000
O     6.637000000     2.480000000     1.637000000
H     6.291000000     3.216000000     2.141000000
H     5.947000000     2.277000000     1.005000000
O    -3.414000000    -6.027000000    -3.426000000
H    -2.785000000    -5.351000000    -3.173000000
H    -3.454000000    -6.612000000    -2.670000000
O     2.683000000     3.746000000     4.114000000
H     2.235000000     2.959000000     3.806000000
H     2.238000000     4.466000000     3.667000000
O    -2.234000000    -3.892000000    -6.195000000
H    -1.890000000    -3.735000000    -5.316000000
H    -3.168000000    -4.054000000    -6.062000000
O    -4.532000000    -1.748000000     1.268000000
H    -4.588000000    -1.096000000     0.570000000
H    -4.399000000    -1.235000000     2.065000000
O     4.173000000    -3.005000000    -1.746000000
H     5.106000000    -3.159000000    -1.598000000
H     3.976000000    -2.220000000    -1.234000000
O    -0.671000000     1.555000000    -6.224000000
H    -0.066000000     1.068000000    -5.665000000
H    -1.536000000     1.373000000    -5.856000000
O    -1.149000000     2.923000000     4.032000000
H    -1.586000000     3.668000000     4.445000000
H    -1.628000000     2.787000000     3.214000000
O    -4.834000000     1.823000000     1.242000000
H    -5.325000000     1.755000000     2.060000000
H    -5.242000000     1.179000000     0.663000000
O    -1.114000000     5.637000000     2.351000000
H    -0.212000000     5.319000000     2.406000000
H    -1.649000000     4.843000000     2.363000000
O    -6.492000000     3.269000000    -4.108000000
H    -5.912000000     3.572000000    -3.410000000
H    -6.860000000     4.070000000    -4.479000000
O     3.967000000    -0.864000000     5.642000000
H     3.370000000    -0.796000000     6.387000000
H     4.645000000    -1.474000000     5.934000000
O    -0.348000000    -1.923000000    -4.301000000
H    -0.023000000    -2.758000000    -3.965000000
H    -1.156000000    -1.766000000    -3.813000000
O    -0.744000000    -2.310000000     3.147000000
H     0.167000000    -2.099000000     2.941000000
H    -0.721000000    -2.603000000     4.058000000
O     0.880000000     1.024000000     4.278000000
H     0.335000000     0.544000000     4.901000000
H     0.404000000     1.839000000     4.122000000
O    -4.259000000     2.377000000    -6.988000000
H    -3.905000000     2.049000000    -6.162000000
H    -4.085000000     1.678000000    -7.618000000
O    -5.427000000     0.749000000    -3.875000000
H    -4.791000000     1.049000000    -3.227000000
H    -5.910000000     1.538000000    -4.120000000
O    -0.090000000     5.227000000    -2.070000000
H    -0.884000000     4.824000000    -2.422000000
H     0.426000000     5.455000000    -2.843000000
O     4.155000000    -0.676000000    -0.235000000
H     3.956000000    -0.875000000     0.680000000
H     3.950000000     0.254000000    -0.328000000
O    -5.002000000    -4.090000000    -0.689000000
H    -4.687000000    -3.423000000    -0.080000000
H    -4.280000000    -4.211000000    -1.307000000
O     0.276000000    -5.800000000    -1.101000000
H     0.968000000    -5.693000000    -0.449000000
H    -0.273000000    -6.505000000    -0.755000000
O    -2.549000000    -3.603000000     1.056000000
H    -1.943000000    -3.216000000     1.688000000
H    -3.292000000    -3.000000000     1.036000000
O     2.061000000     1.627000000    -2.463000000
H     2.167000000     1.007000000    -1.741000000
H     1.551000000     1.148000000    -3.117000000
O    -6.866000000    -0.347000000    -5.986000000
H    -6.340000000    -0.103000000    -5.224000000
H    -7.449000000    -1.035000000    -5.664000000
O     0.994000000     0.312000000    -4.747000000
H     0.770000000    -0.607000000    -4.600000000
H     1.628000000     0.292000000    -5.465000000
O     1.669000000     3.411000000     6.758000000
H     0.928000000     4.018000000     6.754000000
H     2.096000000     3.550000000     5.913000000
O    -5.182000000    -0.067000000    -0.601000000
H    -5.873000000    -0.302000000    -1.219000000
H    -4.441000000     0.181000000    -1.154000000
O     3.470000000    -5.428000000    -1.899000000
H     2.955000000    -5.594000000    -1.109000000
H     3.476000000    -4.475000000    -1.985000000
O    -2.081000000     3.736000000    -3.333000000
H    -2.640000000     3.038000000    -2.992000000
H    -2.236000000     3.728000000    -4.277000000
O     1.567000000     5.291000000     1.936000000
H     1.536000000     4.985000000     1.029000000
H     1.878000000     6.194000000     1.874000000
O     2.027000000     3.998000000    -0.510000000
H     1.998000000     3.074000000    -0.756000000
H     1.287000000     4.393000000    -0.971000000
O    -7.421000000     1.803000000    -1.109000000
H    -8.170000000     1.756000000    -0.513000000
H    -7.569000000     1.095000000    -1.735000000
O    -2.774000000     0.157000000     2.908000000
H    -1.867000000    -0.140000000     2.967000000
H    -2.775000000     0.784000000     2.185000000
O    -4.779000000    -4.998000000    -5.725000000
H    -4.779000000    -4.438000000    -4.949000000
H    -4.900000000    -5.883000000    -5.383000000
O     5.265000000     4.711000000     3.844000000
H     4.511000000     4.122000000     3.867000000
H     4.991000000     5.471000000     4.358000000
O    -2.911000000     3.300000000     2.079000000
H    -3.604000000     3.001000000     1.491000000
H    -3.376000000     3.650000000     2.839000000
O     0.015000000    -4.476000000    -3.509000000
H     0.053000000    -4.782000000    -2.603000000
H     0.931000000    -4.426000000    -3.783000000
O     3.882000000     1.919000000     0.945000000
H     3.695000000     1.625000000     1.836000000
H     3.514000000     2.802000000     0.901000000
O    -2.971000000     0.830000000    -5.037000000
H    -2.960000000     0.835000000    -4.080000000
H    -3.217000000    -0.065000000    -5.269000000
O    -4.612000000    -1.928000000    -4.084000000
H    -3.792000000    -1.650000000    -3.676000000
H    -5.119000000    -1.121000000    -4.177000000
O     2.707000000    -3.650000000     4.773000000
H     2.664000000    -2.707000000     4.930000000
H     2.320000000    -4.041000000     5.556000000
O    -5.065000000     3.424000000    -1.363000000
H    -4.515000000     3.330000000    -0.585000000
H    -5.876000000     2.968000000    -1.140000000
O     3.396000000     0.327000000     3.344000000
H     2.475000000     0.417000000     3.588000000
H     3.789000000    -0.161000000     4.068000000
O     2.105000000    -5.421000000     0.722000000
H     3.043000000    -5.426000000     0.914000000
H     1.686000000    -5.551000000     1.573000000
O     2.736000000    -4.497000000    -4.755000000
H     3.178000000    -4.900000000    -5.502000000
H     3.439000000    -4.307000000    -4.134000000
O    -1.394000000     0.036000000     5.703000000
H    -1.970000000     0.065000000     4.940000000
H    -1.622000000     0.818000000     6.206000000
O    -2.462000000    -3.841000000    -1.964000000
H    -2.621000000    -2.924000000    -2.187000000
H    -1.989000000    -3.806000000    -1.132000000
