158
-3026.68227
C     0.609000000    -1.303000000    -0.397000000
H     1.152000000    -2.190000000    -0.713000000
C     0.755000000    -0.639000000     0.800000000
H     1.440000000    -1.015000000     1.555000000
C     0.196000000     0.614000000     1.044000000
H     0.419000000     1.220000000     1.976000000
C    -0.619000000     1.163000000     0.120000000
H    -1.095000000     2.120000000     0.323000000
C    -0.978000000     0.415000000    -1.050000000
H    -1.638000000     0.845000000    -1.799000000
C    -0.383000000    -0.825000000    -1.309000000
C    -0.587000000    -1.552000000    -2.585000000
O     0.103000000    -2.526000000    -2.961000000
O    -1.314000000    -1.021000000    -3.367000000
O    -6.593000000     0.941000000    -0.808000000
H    -7.128000000     0.540000000    -0.122000000
H    -5.749000000     0.492000000    -0.746000000
O     3.822000000    -4.537000000    -0.068000000
H     2.998000000    -4.836000000     0.315000000
H     3.630000000    -4.434000000    -1.000000000
O    -3.664000000     3.637000000     0.762000000
H    -3.147000000     3.883000000    -0.006000000
H    -3.960000000     2.746000000     0.576000000
O    -3.402000000     1.215000000     2.916000000
H    -3.077000000     1.299000000     3.813000000
H    -3.939000000     1.995000000     2.781000000
O    -4.019000000    -2.746000000    -5.349000000
H    -4.700000000    -2.357000000    -4.799000000
H    -4.254000000    -2.487000000    -6.240000000
O     3.657000000    -4.899000000    -5.162000000
H     3.856000000    -4.339000000    -4.411000000
H     3.465000000    -4.287000000    -5.872000000
O    -2.474000000     0.978000000     5.524000000
H    -2.840000000     1.532000000     6.214000000
H    -2.073000000     0.246000000     5.993000000
O    -1.496000000    -1.361000000    -5.995000000
H    -1.597000000    -1.129000000    -5.072000000
H    -2.062000000    -0.745000000    -6.461000000
O     4.395000000     5.592000000     3.819000000
H     4.572000000     5.049000000     3.051000000
H     3.449000000     5.526000000     3.946000000
O     2.881000000    -2.811000000     5.070000000
H     2.960000000    -1.906000000     5.370000000
H     1.970000000    -3.044000000     5.249000000
O    -0.804000000     4.211000000     1.502000000
H    -0.276000000     4.244000000     2.299000000
H    -1.591000000     3.729000000     1.755000000
O    -5.530000000     1.575000000    -3.672000000
H    -5.448000000     1.331000000    -2.751000000
H    -5.294000000     2.502000000    -3.696000000
O     0.077000000     3.210000000    -3.021000000
H     1.008000000     3.389000000    -2.893000000
H     0.053000000     2.342000000    -3.425000000
O    -0.898000000     4.361000000     5.980000000
H    -1.011000000     3.981000000     5.109000000
H    -1.280000000     3.715000000     6.575000000
O    -4.257000000    -0.643000000    -0.778000000
H    -4.572000000    -1.499000000    -1.069000000
H    -3.745000000    -0.831000000     0.009000000
O     2.622000000    -2.563000000    -6.662000000
H     2.573000000    -2.015000000    -5.879000000
H     1.762000000    -2.473000000    -7.072000000
O    -1.572000000     6.408000000     0.111000000
H    -1.217000000     5.608000000     0.499000000
H    -0.992000000     7.103000000     0.422000000
O     2.173000000    -1.107000000    -4.190000000
H     1.743000000    -0.295000000    -4.455000000
H     1.470000000    -1.642000000    -3.822000000
O     0.197000000    -2.410000000    -7.607000000
H    -0.422000000    -1.998000000    -7.005000000
H    -0.311000000    -3.094000000    -8.043000000
O    -2.648000000    -0.957000000     1.361000000
H    -1.759000000    -0.798000000     1.046000000
H    -2.908000000    -0.133000000     1.773000000
O     1.191000000     1.539000000     4.491000000
H     2.071000000     1.218000000     4.296000000
H     1.055000000     1.318000000     5.413000000
O    -2.637000000     3.263000000    -6.003000000
H    -2.753000000     2.686000000    -5.249000000
H    -1.976000000     2.825000000    -6.541000000
O    -3.852000000    -4.274000000    -2.887000000
H    -4.039000000    -3.810000000    -2.070000000
H    -3.724000000    -3.579000000    -3.533000000
O    -1.770000000    -3.512000000     2.817000000
H    -2.054000000    -2.732000000     2.341000000
H    -0.816000000    -3.442000000     2.846000000
O     2.467000000    -3.753000000    -2.509000000
H     2.583000000    -4.440000000    -3.165000000
H     1.618000000    -3.364000000    -2.717000000
O     1.267000000     3.701000000     3.190000000
H     1.336000000     2.820000000     3.558000000
H     1.311000000     4.282000000     3.949000000
O    -0.619000000    -4.790000000    -1.353000000
H    -0.416000000    -3.906000000    -1.659000000
H    -1.206000000    -5.146000000    -2.020000000
O     0.860000000    -2.917000000     2.968000000
H     1.785000000    -2.895000000     3.211000000
H     0.420000000    -2.410000000     3.650000000
O     2.351000000     1.418000000    -6.087000000
H     2.772000000     2.042000000    -5.494000000
H     1.457000000     1.340000000    -5.755000000
O     0.783000000     0.467000000     7.137000000
H     0.723000000     1.299000000     7.606000000
H     1.680000000     0.171000000     7.289000000
O    -2.052000000     4.059000000    -1.447000000
H    -1.776000000     4.897000000    -1.074000000
H    -1.233000000     3.597000000    -1.629000000
O    -1.859000000    -6.414000000    -3.608000000
H    -2.702000000    -6.126000000    -3.256000000
H    -1.540000000    -5.663000000    -4.108000000
O     0.056000000    -6.046000000    -6.687000000
H     0.776000000    -6.548000000    -6.305000000
H     0.088000000    -5.201000000    -6.239000000
O    -3.598000000     5.611000000     2.460000000
H    -4.013000000     5.240000000     3.238000000
H    -3.548000000     4.879000000     1.844000000
O     4.708000000    -2.238000000    -3.625000000
H     3.935000000    -1.842000000    -4.025000000
H     4.658000000    -1.986000000    -2.703000000
O     2.126000000     3.445000000     0.413000000
H     2.195000000     3.341000000     1.362000000
H     1.209000000     3.255000000     0.217000000
O    -4.152000000     4.184000000    -3.681000000
H    -3.361000000     4.160000000    -3.142000000
H    -3.828000000     4.209000000    -4.582000000
O     4.483000000     0.660000000    -2.591000000
H     4.373000000     1.536000000    -2.221000000
H     3.770000000     0.577000000    -3.225000000
O     1.669000000     5.748000000     4.970000000
H     2.090000000     5.753000000     5.830000000
H     0.834000000     6.196000000     5.109000000
O    -0.261000000    -1.138000000     4.541000000
H    -0.384000000    -0.277000000     4.141000000
H    -0.969000000    -1.208000000     5.180000000
O     4.419000000     3.212000000    -1.497000000
H     3.833000000     3.601000000    -0.847000000
H     5.226000000     3.033000000    -1.014000000
O     0.123000000     1.023000000    -4.729000000
H    -0.649000000     1.021000000    -5.294000000
H    -0.144000000     0.523000000    -3.957000000
O     4.854000000    -2.048000000     0.423000000
H     5.009000000    -1.888000000     1.354000000
H     4.660000000    -2.983000000     0.369000000
O    -2.940000000     0.891000000    -4.587000000
H    -2.471000000     0.178000000    -4.153000000
H    -3.865000000     0.693000000    -4.440000000
O     1.114000000    -4.824000000     0.882000000
H     0.884000000    -4.011000000     1.330000000
H     0.452000000    -4.916000000     0.197000000
O     2.234000000     5.874000000    -0.656000000
H     1.975000000     5.721000000    -1.565000000
H     2.323000000     4.998000000    -0.282000000
O     3.211000000     0.275000000     3.280000000
H     3.200000000     0.587000000     2.376000000
H     4.007000000    -0.255000000     3.341000000
O    -1.204000000    -4.055000000    -4.842000000
H    -0.828000000    -3.348000000    -4.317000000
H    -1.993000000    -3.672000000    -5.228000000
