158
-3026.55963
C     1.315000000    -0.342000000    -0.476000000
H     2.358000000    -0.600000000    -0.639000000
C     1.047000000     0.122000000     0.756000000
H     1.843000000     0.206000000     1.491000000
C    -0.255000000     0.494000000     1.065000000
H    -0.428000000     0.827000000     2.107000000
C    -1.312000000     0.280000000     0.151000000
H    -2.331000000     0.421000000     0.503000000
C    -1.044000000    -0.133000000    -1.150000000
H    -1.827000000    -0.218000000    -1.899000000
C     0.297000000    -0.511000000    -1.494000000
C     0.648000000    -1.010000000    -2.855000000
O     1.738000000    -1.490000000    -3.107000000
O    -0.119000000    -0.890000000    -3.729000000
O     2.442000000    -5.866000000    -2.263000000
H     2.011000000    -5.177000000    -2.769000000
H     2.003000000    -6.672000000    -2.534000000
O    -4.621000000     3.550000000    -3.564000000
H    -4.036000000     2.977000000    -4.059000000
H    -4.506000000     4.412000000    -3.963000000
O    -2.074000000     3.254000000     1.878000000
H    -1.438000000     3.192000000     1.165000000
H    -2.319000000     4.179000000     1.901000000
O    -2.826000000    -1.534000000     3.756000000
H    -2.444000000    -1.941000000     2.979000000
H    -2.104000000    -1.490000000     4.383000000
O    -1.405000000     1.053000000     7.492000000
H    -1.367000000     1.338000000     8.404000000
H    -0.707000000     0.402000000     7.415000000
O    -5.678000000    -2.783000000    -2.162000000
H    -6.206000000    -2.230000000    -1.586000000
H    -5.441000000    -3.535000000    -1.620000000
O    -4.886000000     0.085000000     4.102000000
H    -4.655000000     0.422000000     4.967000000
H    -4.229000000    -0.588000000     3.923000000
O    -1.376000000    -3.667000000    -6.669000000
H    -1.405000000    -4.599000000    -6.451000000
H    -2.258000000    -3.467000000    -6.982000000
O     5.164000000    -0.006000000     5.017000000
H     4.275000000     0.293000000     5.209000000
H     5.063000000    -0.589000000     4.265000000
O    -3.981000000     4.422000000     4.071000000
H    -3.096000000     4.444000000     3.707000000
H    -3.892000000     4.813000000     4.941000000
O    -0.679000000     4.122000000     4.179000000
H    -1.027000000     3.679000000     3.404000000
H    -1.332000000     3.960000000     4.860000000
O     3.131000000    -3.656000000     2.772000000
H     3.745000000    -4.200000000     3.265000000
H     3.140000000    -4.024000000     1.889000000
O     2.746000000     2.120000000    -4.051000000
H     3.565000000     2.492000000    -3.723000000
H     2.104000000     2.315000000    -3.369000000
O     0.641000000    -1.155000000     6.705000000
H     0.505000000    -1.578000000     7.553000000
H     0.307000000    -1.785000000     6.067000000
O    -0.617000000    -3.151000000     5.480000000
H    -1.227000000    -3.811000000     5.150000000
H    -0.765000000    -3.139000000     6.425000000
O     5.490000000    -1.798000000    -0.126000000
H     4.923000000    -1.767000000    -0.896000000
H     6.120000000    -2.492000000    -0.320000000
O    -4.652000000     3.115000000    -0.603000000
H    -4.956000000     3.369000000    -1.475000000
H    -5.127000000     2.307000000    -0.410000000
O     0.133000000     1.945000000    -4.526000000
H     1.072000000     1.948000000    -4.710000000
H    -0.053000000     1.050000000    -4.241000000
O    -1.081000000     3.124000000    -1.093000000
H    -0.264000000     2.637000000    -1.203000000
H    -1.717000000     2.649000000    -1.630000000
O     4.617000000    -1.305000000     2.713000000
H     4.017000000    -2.043000000     2.611000000
H     4.820000000    -1.035000000     1.818000000
O     3.106000000    -0.471000000    -5.116000000
H     3.199000000     0.440000000    -4.836000000
H     2.479000000    -0.849000000    -4.499000000
O    -1.847000000    -2.585000000     1.195000000
H    -2.149000000    -2.762000000     0.304000000
H    -1.094000000    -2.005000000     1.082000000
O     3.334000000     0.583000000     7.360000000
H     2.501000000     0.513000000     6.893000000
H     3.119000000     0.364000000     8.267000000
O    -1.550000000     1.641000000    -6.495000000
H    -0.936000000     1.801000000    -5.779000000
H    -1.051000000     1.123000000    -7.127000000
O     4.385000000     1.359000000    -0.834000000
H     4.973000000     0.788000000    -1.329000000
H     4.647000000     1.239000000     0.079000000
O    -2.407000000    -3.693000000    -1.443000000
H    -2.390000000    -3.366000000    -2.342000000
H    -3.168000000    -4.272000000    -1.412000000
O     1.384000000    -3.948000000    -3.870000000
H     1.626000000    -3.565000000    -4.713000000
H     1.213000000    -3.195000000    -3.305000000
O     1.980000000     4.759000000     4.178000000
H     2.278000000     3.888000000     3.919000000
H     1.028000000     4.678000000     4.243000000
O    -0.535000000    -5.086000000     1.970000000
H    -0.896000000    -4.205000000     1.871000000
H    -0.774000000    -5.345000000     2.860000000
O     4.894000000    -1.567000000    -7.654000000
H     4.224000000    -1.512000000    -6.973000000
H     5.015000000    -2.506000000    -7.795000000
O     1.051000000    -2.025000000     3.129000000
H     1.743000000    -2.659000000     2.942000000
H     0.578000000    -2.400000000     3.872000000
O     1.844000000     2.600000000    -0.910000000
H     2.624000000     2.052000000    -1.001000000
H     1.517000000     2.407000000    -0.032000000
O    -2.017000000     3.496000000     6.686000000
H    -1.693000000     2.612000000     6.855000000
H    -2.691000000     3.635000000     7.351000000
O    -5.533000000     1.999000000     2.374000000
H    -4.754000000     2.515000000     2.168000000
H    -5.207000000     1.273000000     2.905000000
O     5.966000000    -0.947000000    -4.509000000
H     5.234000000    -0.463000000    -4.892000000
H     5.583000000    -1.414000000    -3.767000000
O     2.702000000     2.368000000     3.305000000
H     2.501000000     1.510000000     3.679000000
H     3.293000000     2.180000000     2.576000000
O    -4.720000000    -1.755000000    -4.607000000
H    -3.806000000    -1.920000000    -4.378000000
H    -5.213000000    -2.019000000    -3.830000000
O     2.327000000     0.558000000    -7.886000000
H     2.598000000     1.457000000    -7.701000000
H     2.374000000     0.115000000    -7.038000000
O     4.877000000     1.549000000     2.026000000
H     5.490000000     1.917000000     1.390000000
H     5.212000000     1.836000000     2.875000000
O     0.854000000    -2.170000000    -6.224000000
H     0.081000000    -2.603000000    -6.586000000
H     0.533000000    -1.722000000    -5.441000000
O     4.206000000    -2.353000000    -2.428000000
H     4.226000000    -3.216000000    -2.842000000
H     3.294000000    -2.073000000    -2.502000000
O    -3.873000000     1.118000000    -4.696000000
H    -3.217000000     1.140000000    -5.393000000
H    -4.218000000     0.225000000    -4.720000000
O     2.226000000    -4.923000000     0.476000000
H     1.313000000    -5.037000000     0.740000000
H     2.234000000    -5.135000000    -0.457000000
O    -0.396000000     0.093000000    -8.502000000
H     0.483000000    -0.091000000    -8.172000000
H    -0.251000000     0.517000000    -9.348000000
O     3.705000000     4.672000000    -0.311000000
H     4.500000000     4.166000000    -0.140000000
H     3.107000000     4.047000000    -0.720000000
O     2.088000000     0.075000000     4.571000000
H     2.000000000    -0.429000000     3.762000000
H     1.595000000    -0.425000000     5.221000000
O    -2.106000000    -2.645000000    -3.996000000
H    -1.469000000    -1.974000000    -3.751000000
H    -1.610000000    -3.261000000    -4.536000000
O    -4.036000000     1.034000000     6.869000000
H    -4.307000000     1.855000000     7.280000000
H    -3.103000000     0.962000000     7.071000000
