158
-3048.63454
C     0.756000000    -1.208000000    -0.034000000
H     1.356000000    -2.114000000    -0.053000000
C     0.839000000    -0.253000000     1.020000000
H     1.524000000    -0.344000000     1.859000000
C    -0.012000000     0.844000000     0.982000000
H     0.029000000     1.538000000     1.788000000
C    -0.867000000     0.967000000    -0.143000000
H    -1.613000000     1.755000000    -0.193000000
C    -0.895000000     0.017000000    -1.157000000
H    -1.527000000     0.174000000    -2.027000000
C    -0.137000000    -1.133000000    -1.119000000
C    -0.086000000    -2.184000000    -2.240000000
O     0.734000000    -3.032000000    -2.314000000
O    -0.932000000    -2.107000000    -3.072000000
O     2.291000000    -7.117000000    -3.073000000
H     2.184000000    -6.258000000    -3.482000000
H     1.396000000    -7.415000000    -2.906000000
O    -4.258000000     3.426000000    -0.194000000
H    -4.210000000     4.298000000     0.198000000
H    -3.536000000     3.406000000    -0.822000000
O    -3.881000000    -0.469000000     3.735000000
H    -4.655000000    -0.351000000     4.286000000
H    -3.916000000     0.260000000     3.115000000
O    -4.674000000    -4.897000000    -5.561000000
H    -4.817000000    -4.385000000    -6.358000000
H    -3.990000000    -4.421000000    -5.091000000
O    -2.175000000    -2.487000000    -7.105000000
H    -2.376000000    -2.012000000    -7.912000000
H    -2.341000000    -3.405000000    -7.320000000
O     2.289000000    -1.848000000     5.874000000
H     2.437000000    -1.899000000     4.930000000
H     2.901000000    -1.177000000     6.177000000
O    -0.875000000     4.853000000     4.978000000
H    -0.755000000     4.228000000     5.693000000
H    -0.018000000     4.898000000     4.554000000
O     3.377000000    -1.897000000     3.344000000
H     2.849000000    -2.644000000     3.063000000
H     3.904000000    -1.675000000     2.576000000
O     1.247000000     1.322000000    -4.451000000
H     1.643000000     1.877000000    -5.123000000
H     0.852000000     0.600000000    -4.940000000
O    -1.358000000     2.229000000     7.447000000
H    -1.696000000     1.455000000     6.996000000
H    -1.889000000     2.295000000     8.240000000
O    -2.039000000    -0.419000000     5.686000000
H    -2.703000000    -0.479000000     6.372000000
H    -2.441000000    -0.840000000     4.926000000
O     4.087000000    -1.179000000    -1.213000000
H     3.441000000    -0.493000000    -1.382000000
H     3.707000000    -1.967000000    -1.602000000
O    -3.990000000     0.563000000     1.096000000
H    -4.169000000     1.449000000     0.779000000
H    -4.225000000    -0.006000000     0.363000000
O     4.695000000     2.094000000     5.075000000
H     4.619000000     3.042000000     4.969000000
H     4.069000000     1.731000000     4.448000000
O    -1.529000000     4.847000000     0.227000000
H    -1.817000000     5.162000000     1.083000000
H    -0.747000000     4.327000000     0.414000000
O     2.056000000    -1.317000000    -4.140000000
H     1.324000000    -1.533000000    -4.718000000
H     2.034000000    -1.993000000    -3.463000000
O     0.497000000    -4.334000000    -7.377000000
H     0.303000000    -5.271000000    -7.337000000
H    -0.085000000    -3.941000000    -6.728000000
O    -1.879000000    -1.745000000     2.374000000
H    -1.588000000    -1.450000000     1.511000000
H    -2.562000000    -1.122000000     2.623000000
O     0.942000000     2.688000000     5.775000000
H     0.694000000     1.853000000     5.379000000
H     1.075000000     2.485000000     6.701000000
O    -3.398000000     1.388000000    -5.909000000
H    -3.371000000     0.803000000    -5.152000000
H    -2.530000000     1.307000000    -6.305000000
O     5.866000000     3.827000000     2.208000000
H     6.297000000     3.043000000     2.546000000
H     4.982000000     3.536000000     1.981000000
O     1.794000000     3.621000000    -2.177000000
H     1.377000000     4.210000000    -2.807000000
H     1.125000000     2.964000000    -1.985000000
O    -3.160000000    -3.841000000    -0.945000000
H    -3.538000000    -3.270000000    -1.614000000
H    -3.725000000    -4.614000000    -0.945000000
O    -0.854000000    -4.446000000     0.635000000
H    -1.542000000    -4.391000000    -0.028000000
H    -0.738000000    -3.544000000     0.935000000
O     0.913000000    -5.220000000    -4.251000000
H     1.305000000    -4.739000000    -4.980000000
H     0.533000000    -4.542000000    -3.693000000
O     1.968000000     4.591000000     3.798000000
H     1.877000000     3.930000000     4.484000000
H     2.581000000     5.231000000     4.161000000
O     1.436000000    -5.493000000    -0.353000000
H     1.209000000    -6.009000000    -1.127000000
H     0.627000000    -5.032000000    -0.127000000
O     4.884000000    -0.944000000     1.332000000
H     5.776000000    -0.605000000     1.406000000
H     4.710000000    -0.959000000     0.391000000
O     0.140000000    -3.220000000     3.653000000
H    -0.508000000    -2.544000000     3.454000000
H    -0.139000000    -3.580000000     4.494000000
O    -0.331000000    -7.157000000    -2.086000000
H    -0.794000000    -7.757000000    -1.500000000
H    -0.956000000    -6.450000000    -2.247000000
O     0.729000000     0.019000000     4.775000000
H    -0.225000000     0.078000000     4.831000000
H     0.944000000    -0.795000000     5.231000000
O    -2.513000000     4.321000000    -2.370000000
H    -2.120000000     4.556000000    -1.530000000
H    -1.899000000     4.654000000    -3.024000000
O    -2.141000000    -5.439000000    -2.917000000
H    -2.323000000    -4.786000000    -2.242000000
H    -1.978000000    -4.927000000    -3.709000000
O    -2.400000000     5.041000000     2.848000000
H    -3.232000000     4.632000000     3.084000000
H    -1.866000000     4.970000000     3.639000000
O     1.313000000     4.203000000     0.657000000
H     1.304000000     3.746000000     1.498000000
H     2.107000000     3.890000000     0.223000000
O    -4.840000000     3.667000000    -4.082000000
H    -4.673000000     2.779000000    -4.396000000
H    -4.234000000     3.781000000    -3.350000000
O     3.201000000     1.028000000    -2.657000000
H     3.051000000     1.962000000    -2.510000000
H     2.522000000     0.771000000    -3.282000000
O     6.314000000    -3.794000000    -1.256000000
H     6.114000000    -4.726000000    -1.170000000
H     5.519000000    -3.350000000    -0.962000000
O    -5.032000000    -1.966000000    -2.431000000
H    -5.372000000    -2.860000000    -2.459000000
H    -5.255000000    -1.652000000    -1.555000000
O    -1.364000000     7.730000000    -0.185000000
H    -1.192000000     6.789000000    -0.194000000
H    -0.523000000     8.125000000     0.044000000
O     3.437000000     2.599000000     1.262000000
H     3.288000000     1.898000000     1.897000000
H     3.600000000     2.143000000     0.436000000
O    -0.053000000    -0.907000000    -5.808000000
H    -0.690000000    -0.955000000    -6.520000000
H    -0.569000000    -1.052000000    -5.015000000
O     3.096000000    -4.051000000    -1.930000000
H     3.208000000    -4.946000000    -1.610000000
H     2.160000000    -3.877000000    -1.832000000
O    -3.201000000    -0.616000000    -3.927000000
H    -2.347000000    -0.928000000    -3.628000000
H    -3.830000000    -1.043000000    -3.346000000
O     2.187000000    -4.803000000     2.298000000
H     1.499000000    -4.229000000     2.635000000
H     1.802000000    -5.205000000     1.519000000
O     1.425000000     6.429000000    -1.291000000
H     1.142000000     6.221000000    -2.182000000
H     1.149000000     5.675000000    -0.770000000
O     2.953000000     1.033000000     3.436000000
H     2.123000000     0.693000000     3.770000000
H     3.441000000     0.255000000     3.169000000
O    -1.860000000    -3.750000000    -4.859000000
H    -1.532000000    -3.180000000    -4.163000000
H    -2.165000000    -3.148000000    -5.538000000
