158
-3057.17880
C     0.758000000    -1.042000000    -0.675000000
H     1.403000000    -1.839000000    -1.035000000
C     1.105000000    -0.375000000     0.513000000
H     2.109000000    -0.581000000     0.877000000
C     0.254000000     0.532000000     1.111000000
H     0.595000000     1.015000000     2.030000000
C    -0.919000000     0.868000000     0.451000000
H    -1.605000000     1.589000000     0.888000000
C    -1.198000000     0.290000000    -0.778000000
H    -2.105000000     0.499000000    -1.340000000
C    -0.417000000    -0.678000000    -1.305000000
C    -0.816000000    -1.490000000    -2.552000000
O    -0.076000000    -2.343000000    -3.043000000
O    -1.787000000    -1.130000000    -3.192000000
O     1.638000000    -6.789000000    -3.218000000
H     1.253000000    -6.125000000    -3.789000000
H     0.901000000    -7.122000000    -2.706000000
O    -5.116000000     2.146000000    -1.246000000
H    -5.864000000     1.565000000    -1.104000000
H    -4.707000000     1.819000000    -2.047000000
O    -3.242000000     5.563000000     3.989000000
H    -2.730000000     5.351000000     3.209000000
H    -4.125000000     5.731000000     3.658000000
O    -5.038000000     0.033000000     4.892000000
H    -4.768000000    -0.885000000     4.916000000
H    -4.435000000     0.444000000     4.273000000
O     2.698000000    -1.445000000     6.956000000
H     2.457000000    -1.759000000     6.084000000
H     3.330000000    -0.745000000     6.793000000
O     0.216000000     4.002000000     4.509000000
H    -0.436000000     4.043000000     5.208000000
H     1.042000000     4.223000000     4.939000000
O     3.349000000    -1.826000000     3.763000000
H     3.488000000    -2.772000000     3.805000000
H     2.755000000    -1.704000000     3.022000000
O     1.133000000     1.689000000    -3.520000000
H     1.151000000     2.545000000    -3.948000000
H     1.382000000     1.869000000    -2.613000000
O    -1.388000000     3.430000000     6.689000000
H    -1.517000000     2.499000000     6.867000000
H    -2.274000000     3.788000000     6.635000000
O    -1.035000000     0.735000000     7.318000000
H    -0.346000000     0.086000000     7.460000000
H    -1.743000000     0.465000000     7.902000000
O     5.209000000    -2.148000000    -0.679000000
H     4.828000000    -1.833000000    -1.499000000
H     4.782000000    -2.991000000    -0.526000000
O    -4.234000000     2.409000000     2.239000000
H    -4.376000000     2.138000000     1.332000000
H    -3.331000000     2.727000000     2.256000000
O     3.062000000    -4.656000000    -5.523000000
H     3.069000000    -3.907000000    -6.120000000
H     2.145000000    -4.751000000    -5.268000000
O    -0.429000000     1.324000000    -5.580000000
H     0.219000000     1.351000000    -4.877000000
H     0.073000000     1.090000000    -6.361000000
O    -1.909000000     4.798000000     1.823000000
H    -2.535000000     4.726000000     1.104000000
H    -1.180000000     4.233000000     1.564000000
O     5.735000000    -0.738000000     4.546000000
H     6.240000000    -1.549000000     4.502000000
H     4.835000000    -1.006000000     4.358000000
O     1.901000000    -0.939000000    -4.343000000
H     1.789000000    -0.043000000    -4.025000000
H     1.071000000    -1.370000000    -4.139000000
O    -1.904000000    -1.715000000     1.682000000
H    -2.820000000    -1.721000000     1.405000000
H    -1.422000000    -1.407000000     0.915000000
O    -2.797000000     2.991000000    -3.683000000
H    -3.223000000     2.135000000    -3.637000000
H    -2.162000000     2.904000000    -4.394000000
O     4.327000000     4.519000000     0.686000000
H     4.896000000     4.937000000     1.333000000
H     4.184000000     3.636000000     1.029000000
O     2.053000000     2.198000000    -1.162000000
H     2.975000000     1.987000000    -1.310000000
H     1.736000000     1.499000000    -0.590000000
O     2.711000000     6.155000000     2.862000000
H     3.574000000     5.765000000     3.004000000
H     2.316000000     5.617000000     2.177000000
O    -4.101000000    -1.591000000    -0.131000000
H    -4.587000000    -2.382000000    -0.366000000
H    -4.778000000    -0.941000000     0.056000000
O    -0.353000000    -4.427000000    -0.821000000
H    -0.594000000    -5.174000000    -1.368000000
H    -0.487000000    -3.664000000    -1.384000000
O     0.418000000    -4.372000000    -4.555000000
H    -0.185000000    -4.377000000    -5.298000000
H     0.127000000    -3.637000000    -4.015000000
O     0.297000000    -2.116000000    -7.898000000
H    -0.213000000    -2.660000000    -8.499000000
H    -0.352000000    -1.746000000    -7.300000000
O     4.678000000    -0.367000000     1.393000000
H     5.536000000     0.052000000     1.465000000
H     4.831000000    -1.131000000     0.837000000
O     0.573000000    -2.402000000     3.016000000
H    -0.308000000    -2.214000000     2.693000000
H     0.431000000    -2.874000000     3.837000000
O     2.741000000    -1.842000000    -6.644000000
H     2.508000000    -1.650000000    -5.736000000
H     1.936000000    -1.684000000    -7.137000000
O     0.368000000     0.685000000     4.637000000
H     0.062000000     0.215000000     3.861000000
H    -0.281000000     0.482000000     5.311000000
O    -2.596000000     3.590000000    -0.457000000
H    -2.232000000     3.740000000    -1.329000000
H    -3.358000000     3.031000000    -0.608000000
O    -2.040000000    -5.747000000    -3.103000000
H    -2.562000000    -5.600000000    -2.314000000
H    -2.366000000    -5.101000000    -3.730000000
O    -0.686000000     6.663000000     4.783000000
H    -1.444000000     6.737000000     4.203000000
H    -0.379000000     5.764000000     4.662000000
O     4.733000000    -1.557000000    -3.356000000
H     3.791000000    -1.585000000    -3.524000000
H     5.033000000    -2.451000000    -3.523000000
O     1.127000000     3.972000000     1.875000000
H     0.606000000     3.964000000     2.677000000
H     1.677000000     3.191000000     1.938000000
O     4.458000000     1.226000000    -1.037000000
H     5.043000000     1.168000000    -0.282000000
H     5.043000000     1.359000000    -1.783000000
O    -2.554000000    -4.061000000     2.859000000
H    -2.070000000    -3.417000000     2.343000000
H    -2.110000000    -4.891000000     2.684000000
O     4.479000000    -4.933000000    -0.387000000
H     4.467000000    -5.194000000     0.534000000
H     3.572000000    -4.693000000    -0.579000000
O     0.242000000     7.047000000     1.131000000
H     0.397000000     6.353000000     1.771000000
H     1.045000000     7.569000000     1.143000000
O    -6.834000000    -1.605000000    -2.781000000
H    -6.252000000    -1.967000000    -2.113000000
H    -7.696000000    -1.590000000    -2.366000000
O     3.288000000     2.284000000     2.064000000
H     3.304000000     2.335000000     3.020000000
H     3.793000000     1.498000000     1.858000000
O    -1.242000000    -1.046000000    -6.031000000
H    -0.996000000    -0.122000000    -6.005000000
H    -1.618000000    -1.218000000    -5.167000000
O     2.816000000    -3.626000000    -2.492000000
H     2.563000000    -4.521000000    -2.719000000
H     2.099000000    -3.083000000    -2.821000000
O    -3.996000000     0.413000000    -3.165000000
H    -3.183000000    -0.083000000    -3.259000000
H    -4.674000000    -0.255000000    -3.069000000
O     1.767000000    -4.537000000     1.003000000
H     1.419000000    -3.963000000     1.686000000
H     1.036000000    -4.657000000     0.396000000
O     0.950000000     4.705000000    -1.141000000
H     1.135000000     3.801000000    -1.397000000
H     1.090000000     4.720000000    -0.194000000
O     2.525000000     2.363000000     4.967000000
H     1.804000000     1.763000000     4.776000000
H     2.455000000     2.528000000     5.908000000
O    -2.874000000    -3.553000000    -4.733000000
H    -2.294000000    -2.841000000    -4.464000000
H    -3.339000000    -3.209000000    -5.495000000
