158
-3042.90872
C    -0.475000000    -1.407000000     0.363000000
H    -0.749000000    -2.407000000     0.688000000
C     0.364000000    -0.688000000     1.190000000
H     0.848000000    -1.068000000     2.087000000
C     0.759000000     0.650000000     0.703000000
H     1.511000000     1.169000000     1.225000000
C     0.168000000     1.189000000    -0.449000000
H     0.471000000     2.166000000    -0.817000000
C    -0.664000000     0.463000000    -1.247000000
H    -1.059000000     0.916000000    -2.152000000
C    -0.990000000    -0.853000000    -0.824000000
C    -1.918000000    -1.612000000    -1.729000000
O    -1.855000000    -2.826000000    -1.775000000
O    -2.641000000    -1.057000000    -2.536000000
O    -6.130000000     1.570000000    -3.497000000
H    -6.582000000     0.796000000    -3.833000000
H    -6.275000000     2.241000000    -4.165000000
O    -3.121000000    -2.494000000     3.229000000
H    -3.908000000    -2.414000000     2.691000000
H    -2.496000000    -2.957000000     2.671000000
O    -3.428000000     1.414000000    -2.655000000
H    -3.393000000     0.458000000    -2.691000000
H    -4.336000000     1.628000000    -2.871000000
O    -1.869000000    -1.408000000    -7.500000000
H    -1.417000000    -0.717000000    -7.016000000
H    -1.922000000    -1.076000000    -8.397000000
O    -1.737000000     2.049000000     1.864000000
H    -2.078000000     1.479000000     2.554000000
H    -0.974000000     1.581000000     1.523000000
O    -3.504000000    -1.811000000    -5.027000000
H    -3.504000000    -1.685000000    -4.078000000
H    -2.777000000    -1.273000000    -5.341000000
O    -2.011000000    -2.902000000     5.821000000
H    -1.238000000    -2.486000000     5.438000000
H    -2.576000000    -3.093000000     5.072000000
O     4.687000000     0.538000000     0.943000000
H     5.118000000     1.386000000     0.832000000
H     4.114000000     0.460000000     0.180000000
O     0.596000000     6.317000000    -0.999000000
H     0.686000000     5.458000000    -0.587000000
H     1.020000000     6.219000000    -1.851000000
O     3.037000000     0.267000000    -1.297000000
H     3.295000000    -0.310000000    -2.015000000
H     2.295000000    -0.178000000    -0.887000000
O    -0.153000000     2.838000000     5.673000000
H    -0.221000000     1.897000000     5.512000000
H    -0.819000000     3.016000000     6.337000000
O     0.574000000    -1.860000000     4.948000000
H     0.951000000    -2.218000000     5.751000000
H     1.142000000    -2.187000000     4.250000000
O    -5.234000000    -0.313000000    -6.943000000
H    -5.144000000    -1.024000000    -7.578000000
H    -4.943000000    -0.694000000    -6.114000000
O    -1.919000000     3.666000000    -2.580000000
H    -2.559000000     3.026000000    -2.892000000
H    -1.932000000     3.572000000    -1.628000000
O    -1.528000000     0.494000000    -4.966000000
H    -2.011000000     0.594000000    -4.146000000
H    -1.640000000     1.333000000    -5.414000000
O     4.162000000     2.725000000    -1.108000000
H     3.737000000     1.881000000    -0.959000000
H     5.022000000     2.502000000    -1.464000000
O    -3.322000000    -4.249000000    -3.436000000
H    -2.823000000    -3.662000000    -2.869000000
H    -4.237000000    -4.086000000    -3.204000000
O    -1.989000000    -0.075000000     3.899000000
H    -1.138000000    -0.264000000     4.294000000
H    -2.417000000    -0.928000000     3.830000000
O     3.223000000     2.358000000     4.699000000
H     4.135000000     2.606000000     4.851000000
H     3.257000000     1.419000000     4.515000000
O    -5.324000000    -3.211000000     1.550000000
H    -5.994000000    -2.989000000     0.903000000
H    -4.716000000    -3.782000000     1.079000000
O    -5.076000000    -3.164000000    -6.772000000
H    -4.485000000    -2.879000000    -6.075000000
H    -5.908000000    -3.329000000    -6.328000000
O    -3.619000000    -4.828000000    -0.354000000
H    -3.962000000    -5.565000000    -0.859000000
H    -2.878000000    -4.509000000    -0.869000000
O     0.569000000    -7.160000000    -0.086000000
H     0.371000000    -6.263000000    -0.357000000
H     0.205000000    -7.229000000     0.797000000
O    -5.905000000    -3.929000000    -2.934000000
H    -6.854000000    -3.899000000    -2.810000000
H    -5.573000000    -3.190000000    -2.425000000
O    -0.072000000    -4.705000000    -0.862000000
H    -0.331000000    -3.945000000    -1.384000000
H     0.471000000    -4.341000000    -0.163000000
O    -1.731000000    -6.366000000    -2.648000000
H    -2.191000000    -5.674000000    -3.123000000
H    -0.984000000    -5.925000000    -2.245000000
O     6.531000000    -1.272000000     1.983000000
H     5.787000000    -0.725000000     1.731000000
H     6.224000000    -1.757000000     2.749000000
O    -1.501000000    -5.152000000     3.124000000
H    -1.791000000    -5.871000000     2.562000000
H    -1.851000000    -5.368000000     3.989000000
O     2.683000000    -2.657000000     3.086000000
H     2.349000000    -3.447000000     2.660000000
H     3.631000000    -2.787000000     3.123000000
O     2.845000000     2.528000000    -3.493000000
H     2.069000000     3.024000000    -3.754000000
H     2.997000000     2.784000000    -2.583000000
O    -1.931000000    -4.910000000    -5.571000000
H    -2.657000000    -4.707000000    -4.982000000
H    -1.207000000    -4.370000000    -5.255000000
O    -5.020000000     0.071000000     0.448000000
H    -5.262000000     0.729000000    -0.203000000
H    -4.985000000     0.552000000     1.274000000
O     2.975000000    -1.294000000     6.669000000
H     2.157000000    -1.013000000     7.079000000
H     3.212000000    -0.572000000     6.088000000
O    -1.578000000     4.098000000     0.011000000
H    -1.769000000     3.328000000     0.546000000
H    -1.711000000     4.840000000     0.601000000
O     1.464000000    -2.527000000    -2.601000000
H     2.025000000    -1.988000000    -3.159000000
H     1.907000000    -2.535000000    -1.752000000
O     0.836000000     5.706000000     4.746000000
H     1.022000000     5.666000000     5.684000000
H     0.398000000     4.878000000     4.552000000
O     0.414000000     4.094000000    -3.802000000
H     0.278000000     3.734000000    -4.679000000
H    -0.468000000     4.181000000    -3.440000000
O     1.088000000    -4.728000000     1.879000000
H     0.267000000    -4.679000000     2.368000000
H     1.216000000    -5.662000000     1.718000000
O    -5.038000000    -1.595000000    -1.618000000
H    -4.157000000    -1.381000000    -1.927000000
H    -5.044000000    -1.318000000    -0.702000000
O     4.745000000     5.022000000    -2.628000000
H     4.917000000     5.576000000    -1.867000000
H     4.265000000     4.273000000    -2.276000000
O    -2.149000000     6.678000000    -2.229000000
H    -2.452000000     5.884000000    -2.669000000
H    -1.405000000     6.390000000    -1.700000000
O     2.909000000     3.773000000     1.955000000
H     2.669000000     4.669000000     1.718000000
H     2.597000000     3.670000000     2.854000000
O    -0.096000000    -2.735000000    -4.722000000
H     0.512000000    -2.662000000    -3.987000000
H    -0.723000000    -2.024000000    -4.586000000
O     1.988000000    -0.032000000    -4.373000000
H     1.075000000     0.186000000    -4.560000000
H     2.316000000     0.717000000    -3.877000000
O     2.813000000    -2.536000000    -0.215000000
H     2.580000000    -2.478000000     0.711000000
H     3.681000000    -2.941000000    -0.218000000
O     5.778000000     3.722000000     2.208000000
H     4.845000000     3.872000000     2.055000000
H     5.827000000     3.429000000     3.118000000
O     3.586000000    -0.299000000     4.109000000
H     4.277000000    -0.188000000     3.456000000
H     3.130000000    -1.097000000     3.842000000
O     1.136000000     6.147000000     2.080000000
H     0.529000000     6.887000000     2.073000000
H     1.354000000     6.023000000     3.003000000
