158
-3019.28588
C     1.058000000    -1.086000000    -0.142000000
H     1.813000000    -1.865000000    -0.073000000
C     0.399000000    -0.724000000     1.056000000
H     0.770000000    -1.175000000     1.973000000
C    -0.593000000     0.301000000     1.031000000
H    -1.147000000     0.639000000     1.955000000
C    -0.912000000     0.917000000    -0.130000000
H    -1.563000000     1.787000000    -0.090000000
C    -0.281000000     0.535000000    -1.318000000
H    -0.563000000     1.081000000    -2.214000000
C     0.726000000    -0.504000000    -1.352000000
C     1.467000000    -0.814000000    -2.600000000
O     1.257000000    -0.155000000    -3.576000000
O     2.253000000    -1.685000000    -2.699000000
O     6.294000000    -2.948000000    -5.551000000
H     5.756000000    -2.579000000    -6.252000000
H     6.051000000    -2.446000000    -4.773000000
O     6.124000000    -3.795000000    -2.006000000
H     5.530000000    -3.617000000    -1.277000000
H     6.305000000    -2.934000000    -2.383000000
O    -0.613000000     1.169000000     4.667000000
H    -1.128000000     0.446000000     4.309000000
H     0.288000000     0.847000000     4.663000000
O    -4.053000000    -1.793000000     1.823000000
H    -3.561000000    -2.281000000     1.163000000
H    -4.886000000    -2.259000000     1.894000000
O     3.655000000     0.134000000     3.476000000
H     2.900000000    -0.324000000     3.846000000
H     3.358000000     1.038000000     3.372000000
O     2.260000000    -3.031000000    -5.043000000
H     2.498000000    -2.488000000    -4.291000000
H     2.697000000    -2.615000000    -5.786000000
O     3.818000000     2.802000000    -5.351000000
H     3.265000000     2.826000000    -4.570000000
H     4.394000000     3.561000000    -5.260000000
O    -4.047000000    -1.549000000    -5.248000000
H    -3.861000000    -2.487000000    -5.284000000
H    -3.186000000    -1.136000000    -5.186000000
O    -0.985000000    -0.902000000    -5.029000000
H    -0.793000000    -0.364000000    -5.797000000
H    -0.161000000    -0.926000000    -4.542000000
O    -3.593000000    -0.719000000     6.213000000
H    -3.109000000    -0.519000000     7.014000000
H    -2.917000000    -0.941000000     5.573000000
O     0.918000000     3.826000000     1.920000000
H     1.176000000     3.203000000     1.240000000
H     1.054000000     4.685000000     1.522000000
O    -1.635000000    -4.511000000     3.135000000
H    -2.134000000    -4.804000000     3.897000000
H    -2.264000000    -4.532000000     2.414000000
O     0.199000000    -6.205000000     2.066000000
H    -0.269000000    -6.433000000     1.263000000
H    -0.313000000    -5.492000000     2.448000000
O     1.789000000     2.273000000    -0.126000000
H     2.360000000     2.274000000    -0.894000000
H     1.373000000     1.411000000    -0.138000000
O     3.781000000    -6.043000000    -5.696000000
H     3.245000000    -6.825000000    -5.565000000
H     3.178000000    -5.313000000    -5.553000000
O     0.702000000     0.098000000    -7.761000000
H     0.978000000    -0.478000000    -8.475000000
H     1.507000000     0.537000000    -7.483000000
O    -1.513000000     3.477000000     3.414000000
H    -0.772000000     3.693000000     2.848000000
H    -1.363000000     2.566000000     3.668000000
O     2.596000000    -4.109000000     2.181000000
H     3.201000000    -4.656000000     2.681000000
H     1.814000000    -4.651000000     2.076000000
O     4.731000000    -3.263000000     0.557000000
H     4.196000000    -3.642000000     1.255000000
H     4.878000000    -2.358000000     0.833000000
O    -1.979000000    -1.184000000     3.943000000
H    -1.500000000    -1.954000000     4.248000000
H    -2.582000000    -1.524000000     3.281000000
O    -1.585000000     5.728000000     4.780000000
H    -1.795000000     4.852000000     4.455000000
H    -1.936000000     5.742000000     5.671000000
O    -4.708000000     0.707000000     1.331000000
H    -4.409000000    -0.201000000     1.385000000
H    -4.657000000     1.030000000     2.231000000
O     2.265000000     2.937000000     3.987000000
H     1.755000000     3.032000000     4.791000000
H     1.712000000     3.318000000     3.305000000
O     5.045000000    -1.705000000    -3.502000000
H     5.396000000    -0.821000000    -3.391000000
H     4.127000000    -1.632000000    -3.240000000
O    -1.371000000     2.615000000    -6.024000000
H    -1.798000000     2.631000000    -5.167000000
H    -0.466000000     2.367000000    -5.835000000
O    -0.216000000    -4.360000000    -5.914000000
H    -0.674000000    -3.707000000    -6.443000000
H     0.602000000    -3.933000000    -5.661000000
O     2.595000000     2.023000000    -7.738000000
H     1.922000000     2.650000000    -8.002000000
H     3.043000000     2.446000000    -7.006000000
O    -0.142000000    -3.047000000     4.684000000
H     0.448000000    -3.789000000     4.816000000
H    -0.783000000    -3.361000000     4.046000000
O    -0.345000000    -4.358000000    -1.402000000
H    -0.685000000    -3.887000000    -2.163000000
H     0.535000000    -4.005000000    -1.276000000
O     5.074000000    -1.203000000    -7.150000000
H     5.336000000    -0.354000000    -7.506000000
H     4.583000000    -0.989000000    -6.357000000
O     0.154000000     6.470000000     2.781000000
H    -0.170000000     7.169000000     2.213000000
H    -0.627000000     6.143000000     3.227000000
O     2.828000000    -4.151000000    -1.326000000
H     2.551000000    -3.301000000    -1.669000000
H     3.609000000    -3.956000000    -0.808000000
O     0.198000000     3.623000000    -2.459000000
H    -0.487000000     4.169000000    -2.844000000
H    -0.017000000     3.591000000    -1.527000000
O    -3.035000000     2.486000000    -3.888000000
H    -3.720000000     3.102000000    -3.629000000
H    -3.001000000     1.851000000    -3.172000000
O    -1.048000000     2.311000000     7.049000000
H    -1.980000000     2.127000000     7.166000000
H    -0.821000000     1.881000000     6.225000000
O     5.415000000    -0.981000000     1.814000000
H     4.783000000    -0.642000000     2.448000000
H     5.532000000    -0.268000000     1.186000000
O     5.481000000     0.912000000    -0.300000000
H     6.274000000     1.160000000    -0.776000000
H     4.821000000     0.791000000    -0.982000000
O     3.106000000    -0.126000000    -5.573000000
H     2.971000000     0.788000000    -5.823000000
H     2.499000000    -0.268000000    -4.847000000
O     1.029000000     2.294000000    -4.885000000
H     1.007000000     1.378000000    -4.609000000
H     0.829000000     2.789000000    -4.091000000
O    -6.617000000     1.340000000    -0.700000000
H    -5.922000000     1.153000000    -0.069000000
H    -7.263000000     0.648000000    -0.557000000
O    -1.383000000    -6.189000000     0.009000000
H    -2.192000000    -5.759000000     0.286000000
H    -0.954000000    -5.549000000    -0.559000000
O    -1.753000000     5.246000000    -3.088000000
H    -1.508000000     5.720000000    -3.883000000
H    -2.703000000     5.146000000    -3.152000000
O    -4.408000000     2.761000000     3.615000000
H    -4.739000000     3.659000000     3.605000000
H    -3.487000000     2.848000000     3.861000000
O     1.455000000    -0.585000000     4.656000000
H     0.972000000    -1.380000000     4.428000000
H     1.238000000    -0.429000000     5.575000000
O    -3.516000000    -0.301000000    -1.661000000
H    -3.455000000    -1.227000000    -1.428000000
H    -2.639000000     0.046000000    -1.496000000
O    -5.657000000     0.872000000     4.937000000
H    -4.869000000     0.537000000     5.364000000
H    -5.334000000     1.528000000     4.319000000
O     3.290000000    -6.902000000    -1.198000000
H     2.925000000    -6.018000000    -1.237000000
H     3.773000000    -6.998000000    -2.018000000
O    -1.582000000    -3.260000000    -3.541000000
H    -1.705000000    -3.917000000    -4.225000000
H    -1.504000000    -2.432000000    -4.015000000
