158
-3022.53978
C    -0.732000000    -1.056000000     0.810000000
H    -1.124000000    -1.884000000     1.396000000
C     0.369000000    -0.262000000     1.275000000
H     0.745000000    -0.410000000     2.284000000
C     0.871000000     0.733000000     0.493000000
H     1.628000000     1.409000000     0.892000000
C     0.412000000     0.931000000    -0.713000000
H     0.783000000     1.723000000    -1.358000000
C    -0.653000000     0.178000000    -1.224000000
H    -1.054000000     0.334000000    -2.222000000
C    -1.262000000    -0.851000000    -0.461000000
C    -2.355000000    -1.674000000    -1.090000000
O    -3.118000000    -2.284000000    -0.326000000
O    -2.423000000    -1.876000000    -2.288000000
O     6.930000000     0.019000000    -0.103000000
H     6.643000000    -0.591000000    -0.783000000
H     6.131000000     0.477000000     0.160000000
O    -3.839000000     1.691000000     0.389000000
H    -3.225000000     1.670000000     1.124000000
H    -4.697000000     1.809000000     0.797000000
O    -3.041000000    -2.460000000     2.643000000
H    -3.319000000    -2.255000000     1.750000000
H    -2.420000000    -3.181000000     2.541000000
O    -1.549000000     3.022000000    -6.707000000
H    -1.457000000     2.203000000    -6.220000000
H    -1.640000000     3.694000000    -6.031000000
O    -4.165000000    -3.540000000    -5.970000000
H    -4.591000000    -4.211000000    -5.438000000
H    -3.314000000    -3.406000000    -5.551000000
O    -5.270000000    -1.134000000    -1.318000000
H    -4.382000000    -1.417000000    -1.100000000
H    -5.328000000    -0.242000000    -0.973000000
O    -6.415000000    -1.770000000     3.203000000
H    -7.344000000    -1.922000000     3.029000000
H    -5.971000000    -2.521000000     2.809000000
O    -1.491000000     0.058000000    -5.806000000
H    -2.010000000    -0.026000000    -5.006000000
H    -2.134000000     0.031000000    -6.514000000
O     5.420000000    -0.447000000    -2.682000000
H     4.869000000    -0.260000000    -3.442000000
H     6.245000000    -0.757000000    -3.054000000
O    -1.264000000     1.903000000     2.040000000
H    -1.631000000     1.227000000     2.610000000
H    -0.572000000     1.456000000     1.553000000
O     4.295000000    -1.088000000     1.163000000
H     4.207000000    -1.036000000     2.114000000
H     4.566000000    -0.208000000     0.899000000
O     0.683000000     7.181000000    -0.682000000
H    -0.013000000     7.261000000    -1.334000000
H     1.311000000     6.575000000    -1.075000000
O     2.736000000    -0.899000000    -1.880000000
H     2.391000000    -0.514000000    -1.074000000
H     3.683000000    -0.934000000    -1.743000000
O     4.430000000     7.013000000    -0.613000000
H     4.958000000     7.508000000    -1.239000000
H     4.177000000     6.220000000    -1.087000000
O     4.550000000     1.382000000     0.176000000
H     4.091000000     1.878000000    -0.502000000
H     4.517000000     1.946000000     0.948000000
O    -4.418000000    -3.242000000     4.847000000
H    -5.158000000    -3.626000000     4.376000000
H    -3.790000000    -3.015000000     4.161000000
O    -1.126000000    -0.014000000     5.848000000
H    -0.585000000     0.621000000     6.318000000
H    -0.498000000    -0.628000000     5.469000000
O    -6.706000000    -0.995000000    -3.710000000
H    -6.060000000    -0.779000000    -4.383000000
H    -6.226000000    -0.920000000    -2.885000000
O    -2.522000000     2.528000000    -2.023000000
H    -2.954000000     2.049000000    -1.315000000
H    -2.368000000     3.401000000    -1.662000000
O    -3.197000000     0.282000000    -3.735000000
H    -2.805000000    -0.380000000    -3.164000000
H    -3.100000000     1.102000000    -3.251000000
O     3.929000000     3.213000000    -1.836000000
H     4.750000000     3.702000000    -1.788000000
H     3.734000000     3.162000000    -2.771000000
O    -4.688000000    -3.943000000    -1.649000000
H    -3.999000000    -3.326000000    -1.403000000
H    -4.993000000    -3.633000000    -2.502000000
O    -2.502000000     0.103000000     3.706000000
H    -2.030000000    -0.026000000     4.529000000
H    -2.673000000    -0.783000000     3.387000000
O     1.288000000    -2.256000000    -5.757000000
H     0.850000000    -2.056000000    -4.930000000
H     2.180000000    -2.496000000    -5.505000000
O    -5.447000000    -3.934000000     1.001000000
H    -4.916000000    -4.490000000     1.572000000
H    -5.088000000    -4.079000000     0.125000000
O    -0.157000000    -6.201000000     2.256000000
H    -0.291000000    -6.761000000     3.021000000
H    -0.406000000    -6.748000000     1.511000000
O     2.389000000    -3.032000000     0.460000000
H     2.778000000    -3.112000000    -0.411000000
H     2.864000000    -2.307000000     0.868000000
O    -3.997000000    -6.004000000     2.170000000
H    -3.447000000    -5.669000000     1.461000000
H    -4.487000000    -6.724000000     1.772000000
O    -2.411000000    -4.650000000     0.582000000
H    -2.472000000    -3.715000000     0.387000000
H    -1.659000000    -4.952000000     0.072000000
O    -1.578000000    -5.638000000    -2.980000000
H    -0.916000000    -5.349000000    -2.352000000
H    -2.072000000    -4.845000000    -3.189000000
O    -4.992000000    -6.643000000    -0.589000000
H    -5.799000000    -6.681000000    -1.102000000
H    -4.582000000    -5.818000000    -0.849000000
O     3.990000000     0.112000000     3.738000000
H     3.318000000    -0.449000000     4.124000000
H     4.620000000     0.254000000     4.445000000
O    -1.092000000    -4.431000000     4.530000000
H    -0.368000000    -4.908000000     4.124000000
H    -1.814000000    -5.059000000     4.546000000
O     0.255000000    -2.010000000     4.515000000
H    -0.479000000    -2.614000000     4.633000000
H     0.807000000    -2.430000000     3.856000000
O    -1.572000000    -3.517000000    -5.203000000
H    -0.967000000    -3.973000000    -5.788000000
H    -1.017000000    -2.919000000    -4.702000000
O    -7.515000000    -2.452000000    -0.444000000
H    -6.914000000    -1.817000000    -0.833000000
H    -6.949000000    -3.048000000     0.046000000
O    -1.110000000     4.916000000    -0.273000000
H    -0.283000000     4.447000000    -0.382000000
H    -1.034000000     5.342000000     0.581000000
O     0.040000000    -2.556000000    -3.100000000
H     0.385000000    -2.778000000    -2.235000000
H    -0.874000000    -2.320000000    -2.940000000
O     1.625000000     4.059000000    -0.682000000
H     2.015000000     4.041000000     0.193000000
H     2.346000000     3.835000000    -1.270000000
O     3.437000000    -2.448000000     4.694000000
H     4.312000000    -2.660000000     4.369000000
H     2.856000000    -3.050000000     4.229000000
O     5.503000000     3.481000000     1.846000000
H     6.197000000     3.389000000     2.498000000
H     4.761000000     3.839000000     2.334000000
O     2.322000000     4.275000000     2.370000000
H     2.822000000     5.069000000     2.181000000
H     1.636000000     4.563000000     2.973000000
O     1.018000000     2.536000000    -4.064000000
H     0.722000000     1.627000000    -4.019000000
H     1.840000000     2.545000000    -3.574000000
O    -0.208000000     5.407000000    -3.360000000
H     0.221000000     4.553000000    -3.404000000
H    -0.915000000     5.353000000    -4.003000000
O     0.251000000    -4.636000000    -0.930000000
H     0.848000000    -5.096000000    -1.521000000
H     0.681000000    -4.676000000    -0.076000000
O     2.963000000     2.496000000     4.631000000
H     3.388000000     1.681000000     4.366000000
H     2.753000000     2.936000000     3.808000000
O     1.013000000     1.522000000     6.328000000
H     1.640000000     2.069000000     5.854000000
H     1.529000000     1.116000000     7.025000000
O     1.280000000    -3.837000000     2.666000000
H     0.715000000    -4.555000000     2.380000000
H     1.796000000    -3.615000000     1.891000000
