158
-3037.31168
C     0.155000000    -1.312000000    -0.834000000
H     0.280000000    -2.176000000    -1.481000000
C     1.041000000    -0.223000000    -0.769000000
H     2.015000000    -0.281000000    -1.246000000
C     0.790000000     0.867000000     0.011000000
H     1.478000000     1.645000000     0.071000000
C    -0.343000000     1.008000000     0.787000000
H    -0.561000000     1.884000000     1.392000000
C    -1.317000000     0.014000000     0.709000000
H    -2.251000000     0.209000000     1.230000000
C    -1.013000000    -1.174000000    -0.014000000
C    -1.994000000    -2.340000000    -0.075000000
O    -1.542000000    -3.435000000    -0.086000000
O    -3.178000000    -2.137000000     0.065000000
O    -4.962000000     0.736000000     3.518000000
H    -4.150000000     0.498000000     3.966000000
H    -5.080000000     0.053000000     2.858000000
O    -3.535000000    -1.803000000     3.149000000
H    -2.823000000    -1.189000000     3.331000000
H    -3.269000000    -2.246000000     2.344000000
O    -7.277000000     0.447000000    -0.159000000
H    -7.187000000     1.214000000     0.407000000
H    -6.649000000    -0.184000000     0.192000000
O    -1.750000000     3.891000000     3.896000000
H    -0.957000000     3.404000000     3.673000000
H    -1.430000000     4.700000000     4.296000000
O    -4.835000000    -3.946000000    -1.054000000
H    -4.253000000    -4.662000000    -0.801000000
H    -4.376000000    -3.153000000    -0.776000000
O     3.934000000    -2.373000000    -2.613000000
H     4.636000000    -2.862000000    -3.042000000
H     4.387000000    -1.787000000    -2.006000000
O    -0.223000000    -3.359000000    -6.530000000
H    -1.070000000    -3.745000000    -6.305000000
H     0.272000000    -3.374000000    -5.711000000
O     4.057000000    -0.778000000    -4.894000000
H     3.894000000    -1.142000000    -5.764000000
H     3.700000000    -1.430000000    -4.291000000
O     6.598000000     2.574000000    -0.142000000
H     6.128000000     2.575000000     0.691000000
H     7.233000000     1.863000000    -0.058000000
O    -3.317000000     2.782000000     1.151000000
H    -2.361000000     2.792000000     1.113000000
H    -3.577000000     2.159000000     0.472000000
O    -2.725000000    -6.098000000    -0.026000000
H    -2.255000000    -5.294000000     0.194000000
H    -2.255000000    -6.449000000    -0.783000000
O    -3.961000000     1.080000000    -1.124000000
H    -4.048000000     0.261000000    -0.636000000
H    -3.706000000     0.808000000    -2.005000000
O     4.531000000     1.768000000    -1.448000000
H     4.674000000     0.831000000    -1.315000000
H     5.313000000     2.184000000    -1.084000000
O     4.777000000     1.772000000    -4.391000000
H     4.491000000     1.868000000    -3.483000000
H     4.470000000     0.903000000    -4.649000000
O     2.267000000     2.564000000    -5.423000000
H     3.059000000     2.082000000    -5.183000000
H     2.193000000     2.447000000    -6.370000000
O    -4.075000000     5.069000000     2.475000000
H    -3.500000000     4.479000000     2.961000000
H    -4.214000000     4.631000000     1.635000000
O     0.020000000    -0.565000000    -4.848000000
H    -0.678000000    -0.936000000    -5.387000000
H     0.573000000    -1.313000000    -4.624000000
O    -5.269000000     3.729000000    -0.807000000
H    -5.135000000     2.781000000    -0.789000000
H    -4.838000000     4.017000000    -1.611000000
O     0.435000000     1.895000000    -3.718000000
H     0.475000000     0.943000000    -3.812000000
H     1.122000000     2.222000000    -4.300000000
O    -6.283000000     2.235000000     1.630000000
H    -5.548000000     1.826000000     2.088000000
H    -5.920000000     3.045000000     1.271000000
O    -2.051000000     0.105000000     4.411000000
H    -2.092000000     0.060000000     5.366000000
H    -1.174000000    -0.210000000     4.193000000
O     2.571000000    -4.710000000    -1.319000000
H     3.070000000    -3.945000000    -1.607000000
H     2.764000000    -5.382000000    -1.973000000
O     1.123000000    -3.370000000    -4.104000000
H     0.469000000    -3.898000000    -3.646000000
H     1.934000000    -3.520000000    -3.620000000
O    -5.598000000    -1.560000000     1.016000000
H    -4.670000000    -1.646000000     0.797000000
H    -5.866000000    -2.443000000     1.272000000
O    -6.933000000    -4.109000000     0.634000000
H    -6.791000000    -4.982000000     0.998000000
H    -6.228000000    -3.998000000    -0.005000000
O    -3.007000000    -5.223000000     3.363000000
H    -3.338000000    -4.673000000     4.072000000
H    -2.166000000    -4.831000000     3.128000000
O     0.406000000    -5.447000000    -0.139000000
H    -0.165000000    -4.712000000     0.088000000
H     1.105000000    -5.055000000    -0.663000000
O    -0.977000000    -4.366000000    -2.512000000
H    -1.169000000    -4.215000000    -1.586000000
H    -1.701000000    -3.948000000    -2.978000000
O    -2.850000000    -2.458000000    -3.386000000
H    -3.732000000    -2.376000000    -3.748000000
H    -2.403000000    -1.658000000    -3.662000000
O    -1.626000000     2.707000000    -2.097000000
H    -0.888000000     2.544000000    -2.684000000
H    -1.362000000     2.314000000    -1.265000000
O    -1.060000000    -3.199000000     2.617000000
H    -0.412000000    -2.495000000     2.653000000
H    -1.128000000    -3.414000000     1.687000000
O     5.739000000     5.369000000    -2.578000000
H     4.874000000     5.052000000    -2.316000000
H     5.706000000     5.392000000    -3.535000000
O     1.307000000     4.870000000     1.175000000
H     0.763000000     4.789000000     0.391000000
H     1.148000000     5.762000000     1.486000000
O     2.595000000     3.171000000     2.761000000
H     2.691000000     3.708000000     3.547000000
H     2.157000000     3.743000000     2.132000000
O    -0.122000000    -7.808000000     1.443000000
H    -0.708000000    -8.435000000     1.017000000
H    -0.080000000    -7.069000000     0.836000000
O     5.244000000    -0.767000000    -0.841000000
H     4.755000000    -0.996000000    -0.051000000
H     6.153000000    -0.699000000    -0.549000000
O     3.343000000     4.423000000    -1.615000000
H     3.635000000     3.520000000    -1.492000000
H     2.447000000     4.342000000    -1.942000000
O     5.193000000     5.112000000     3.486000000
H     5.203000000     4.334000000     2.928000000
H     5.861000000     5.685000000     3.110000000
O     2.164000000     0.520000000     2.470000000
H     1.817000000     0.527000000     1.578000000
H     2.355000000     1.439000000     2.659000000
O     5.190000000     2.436000000     2.476000000
H     5.406000000     1.690000000     3.036000000
H     4.234000000     2.429000000     2.427000000
O    -6.326000000    -0.942000000    -2.222000000
H    -5.669000000    -1.424000000    -1.719000000
H    -6.735000000    -0.359000000    -1.583000000
O     0.480000000     4.652000000    -1.618000000
H    -0.414000000     4.347000000    -1.469000000
H     0.479000000     4.965000000    -2.523000000
O    -0.756000000    -7.448000000    -1.705000000
H    -0.270000000    -6.707000000    -1.342000000
H    -1.072000000    -7.136000000    -2.552000000
O     3.624000000     6.753000000     0.195000000
H     3.087000000     6.629000000     0.978000000
H     3.597000000     5.906000000    -0.250000000
O     4.170000000    -1.587000000     1.765000000
H     4.514000000    -1.993000000     2.561000000
H     3.573000000    -0.909000000     2.080000000
O     0.451000000    -0.824000000     4.374000000
H     1.084000000    -0.681000000     3.670000000
H     0.766000000    -1.608000000     4.823000000
O     3.524000000     0.637000000     5.348000000
H     4.043000000     0.564000000     4.547000000
H     2.615000000     0.590000000     5.049000000
O     1.887000000    -3.697000000     1.970000000
H     2.515000000    -3.363000000     1.330000000
H     2.018000000    -4.645000000     1.963000000
