158
-3025.46745
C    -0.405000000    -0.867000000    -1.137000000
H    -0.367000000    -1.524000000    -2.002000000
C     0.551000000     0.156000000    -1.162000000
H     1.175000000     0.403000000    -2.016000000
C     0.736000000     0.950000000    -0.026000000
H     1.359000000     1.873000000    -0.115000000
C     0.075000000     0.723000000     1.143000000
H     0.384000000     1.373000000     1.958000000
C    -0.843000000    -0.354000000     1.156000000
H    -1.364000000    -0.532000000     2.094000000
C    -1.045000000    -1.172000000     0.048000000
C    -2.033000000    -2.364000000     0.183000000
O    -2.018000000    -3.293000000    -0.682000000
O    -2.907000000    -2.247000000     0.972000000
O    -7.233000000    -1.520000000     3.115000000
H    -6.569000000    -0.882000000     3.376000000
H    -6.806000000    -2.050000000     2.443000000
O    -2.149000000    -3.940000000     2.766000000
H    -1.225000000    -3.692000000     2.754000000
H    -2.583000000    -3.276000000     2.231000000
O    -7.043000000    -2.314000000    -1.649000000
H    -7.187000000    -1.406000000    -1.915000000
H    -6.373000000    -2.260000000    -0.967000000
O    -2.627000000     1.496000000     4.638000000
H    -2.596000000     2.001000000     5.450000000
H    -2.023000000     1.949000000     4.050000000
O     2.971000000    -2.189000000    -2.700000000
H     3.653000000    -2.824000000    -2.920000000
H     3.324000000    -1.709000000    -1.951000000
O     0.818000000     7.155000000    -0.352000000
H    -0.048000000     6.822000000    -0.116000000
H     0.639000000     7.929000000    -0.885000000
O     3.075000000    -0.357000000    -4.682000000
H     3.754000000     0.050000000    -4.144000000
H     2.813000000    -1.134000000    -4.189000000
O     6.397000000     2.139000000    -0.539000000
H     5.823000000     2.726000000    -0.046000000
H     6.679000000     1.486000000     0.102000000
O    -4.958000000     1.271000000     2.413000000
H    -4.730000000     0.906000000     1.558000000
H    -4.550000000     0.677000000     3.043000000
O    -4.467000000    -4.474000000    -0.239000000
H    -3.743000000    -3.907000000    -0.506000000
H    -4.091000000    -5.040000000     0.435000000
O    -4.433000000    -0.219000000    -0.336000000
H    -3.925000000    -0.986000000    -0.070000000
H    -4.489000000    -0.288000000    -1.289000000
O     4.862000000     0.941000000    -2.676000000
H     4.760000000     0.374000000    -1.911000000
H     5.341000000     1.702000000    -2.348000000
O     6.256000000    -0.632000000     0.914000000
H     6.609000000    -0.779000000     1.792000000
H     6.727000000    -1.254000000     0.360000000
O     4.920000000     3.312000000    -5.005000000
H     5.087000000     2.596000000    -4.392000000
H     3.998000000     3.213000000    -5.244000000
O     1.995000000    -2.554000000     5.157000000
H     1.476000000    -1.807000000     4.862000000
H     2.406000000    -2.891000000     4.361000000
O     0.388000000     0.657000000    -4.875000000
H     1.209000000     0.370000000    -4.476000000
H     0.648000000     1.028000000    -5.718000000
O    -3.041000000     2.781000000    -4.366000000
H    -2.320000000     2.368000000    -3.892000000
H    -2.792000000     3.704000000    -4.423000000
O    -2.167000000    -0.305000000    -3.972000000
H    -1.262000000    -0.020000000    -4.104000000
H    -2.093000000    -1.224000000    -3.713000000
O    -0.598000000     2.811000000    -2.744000000
H    -1.299000000     2.386000000    -2.250000000
H    -0.146000000     2.092000000    -3.185000000
O    -4.851000000    -0.249000000     4.743000000
H    -5.354000000    -0.851000000     5.292000000
H    -3.939000000    -0.500000000     4.885000000
O     2.093000000    -4.745000000    -3.009000000
H     1.242000000    -4.783000000    -3.446000000
H     2.301000000    -3.812000000    -2.969000000
O     1.343000000    -5.390000000     0.340000000
H     0.449000000    -5.665000000     0.139000000
H     1.811000000    -5.471000000    -0.491000000
O    -0.146000000    -4.375000000    -4.368000000
H    -0.687000000    -3.622000000    -4.130000000
H    -0.757000000    -5.111000000    -4.393000000
O    -5.624000000    -2.718000000     1.356000000
H    -4.726000000    -2.387000000     1.325000000
H    -5.567000000    -3.599000000     0.985000000
O    -3.920000000    -5.926000000     2.582000000
H    -4.072000000    -6.068000000     3.517000000
H    -3.243000000    -5.250000000     2.550000000
O    -1.211000000    -6.028000000    -0.053000000
H    -1.772000000    -5.259000000    -0.159000000
H    -1.324000000    -6.520000000    -0.867000000
O    -2.438000000    -2.957000000    -3.354000000
H    -2.187000000    -3.160000000    -2.453000000
H    -3.387000000    -3.080000000    -3.372000000
O    -4.973000000    -3.875000000    -3.849000000
H    -5.188000000    -3.956000000    -2.920000000
H    -5.782000000    -4.111000000    -4.303000000
O    -2.562000000     2.201000000    -0.526000000
H    -1.854000000     1.661000000    -0.173000000
H    -3.297000000     1.596000000    -0.628000000
O    -3.899000000    -7.040000000    -2.074000000
H    -4.418000000    -7.359000000    -2.812000000
H    -4.024000000    -6.091000000    -2.087000000
O    -4.605000000    -0.116000000    -2.991000000
H    -3.775000000    -0.343000000    -3.409000000
H    -4.977000000     0.567000000    -3.550000000
O     3.000000000     0.616000000     3.833000000
H     3.227000000     1.525000000     4.028000000
H     3.542000000     0.100000000     4.429000000
O     2.492000000     4.461000000     1.325000000
H     2.083000000     4.202000000     0.499000000
H     1.879000000     5.088000000     1.710000000
O    -0.384000000     3.327000000     3.750000000
H     0.232000000     3.251000000     4.478000000
H    -0.022000000     4.022000000     3.201000000
O    -1.397000000    -7.199000000     2.288000000
H    -2.330000000    -7.405000000     2.239000000
H    -1.182000000    -6.853000000     1.421000000
O     1.027000000     6.146000000     2.961000000
H     0.439000000     6.721000000     2.471000000
H     0.779000000     6.274000000     3.877000000
O     4.195000000    -1.503000000    -0.412000000
H     3.767000000    -1.781000000     0.398000000
H     5.048000000    -1.172000000    -0.130000000
O     4.322000000     5.505000000    -2.019000000
H     3.564000000     4.921000000    -1.989000000
H     3.969000000     6.338000000    -2.333000000
O     3.098000000     3.324000000     4.500000000
H     3.804000000     3.799000000     4.938000000
H     2.926000000     3.828000000     3.705000000
O     0.779000000    -0.542000000     3.612000000
H     1.570000000    -0.019000000     3.745000000
H     0.583000000    -0.448000000     2.680000000
O     4.955000000     3.164000000     1.477000000
H     4.210000000     3.737000000     1.657000000
H     5.616000000     3.422000000     2.120000000
O     1.521000000     4.393000000    -1.288000000
H     1.006000000     5.197000000    -1.338000000
H     1.306000000     3.919000000    -2.091000000
O    -0.625000000    -6.966000000    -2.491000000
H     0.009000000    -7.683000000    -2.511000000
H    -1.164000000    -7.101000000    -3.271000000
O     4.803000000     6.481000000     2.156000000
H     5.512000000     6.923000000     1.689000000
H     4.540000000     5.768000000     1.573000000
O     3.292000000    -1.950000000     2.128000000
H     3.793000000    -2.600000000     2.619000000
H     3.706000000    -1.115000000     2.344000000
O    -2.130000000    -1.196000000     4.793000000
H    -2.133000000    -0.255000000     4.968000000
H    -1.769000000    -1.275000000     3.910000000
O     0.702000000     1.130000000     6.279000000
H     0.682000000     1.124000000     5.322000000
H     0.144000000     0.396000000     6.535000000
O     1.000000000    -3.699000000     2.406000000
H     1.520000000    -2.932000000     2.165000000
H     1.183000000    -4.339000000     1.718000000
