158
-3043.72686
C     0.173000000    -1.276000000    -0.784000000
H     0.399000000    -2.249000000    -1.213000000
C     1.179000000    -0.261000000    -0.622000000
H     2.170000000    -0.336000000    -1.063000000
C     0.859000000     0.824000000     0.198000000
H     1.579000000     1.570000000     0.557000000
C    -0.419000000     1.038000000     0.694000000
H    -0.569000000     1.989000000     1.200000000
C    -1.404000000     0.140000000     0.364000000
H    -2.378000000     0.330000000     0.808000000
C    -1.125000000    -1.081000000    -0.191000000
C    -2.197000000    -2.086000000    -0.328000000
O    -1.894000000    -3.214000000    -0.694000000
O    -3.347000000    -1.764000000    -0.319000000
O    -2.857000000    -6.686000000    -0.150000000
H    -2.346000000    -6.434000000    -0.920000000
H    -3.293000000    -7.498000000    -0.407000000
O    -5.449000000     2.579000000    -0.275000000
H    -5.694000000     3.373000000    -0.750000000
H    -5.052000000     2.015000000    -0.938000000
O    -4.346000000    -3.056000000     1.772000000
H    -5.274000000    -2.856000000     1.651000000
H    -3.929000000    -2.759000000     0.964000000
O    -6.521000000     0.038000000    -3.340000000
H    -6.983000000     0.811000000    -3.017000000
H    -6.374000000    -0.497000000    -2.560000000
O    -1.978000000     4.330000000     3.287000000
H    -2.160000000     3.409000000     3.476000000
H    -1.045000000     4.350000000     3.073000000
O    -2.767000000    -1.642000000    -4.229000000
H    -3.108000000    -2.524000000    -4.081000000
H    -2.001000000    -1.582000000    -3.659000000
O     4.314000000    -3.287000000    -3.794000000
H     4.598000000    -4.199000000    -3.859000000
H     5.119000000    -2.796000000    -3.633000000
O    -1.502000000     1.927000000     5.851000000
H    -1.344000000     1.427000000     5.050000000
H    -2.165000000     1.422000000     6.321000000
O     4.923000000     1.322000000    -2.439000000
H     4.886000000     1.932000000    -1.702000000
H     5.854000000     1.122000000    -2.538000000
O    -2.077000000     3.447000000    -2.177000000
H    -2.170000000     3.971000000    -1.381000000
H    -2.772000000     2.792000000    -2.115000000
O    -4.532000000    -1.456000000     5.069000000
H    -3.972000000    -0.915000000     5.625000000
H    -4.865000000    -0.853000000     4.405000000
O    -4.415000000    -4.792000000    -3.864000000
H    -3.823000000    -5.354000000    -4.363000000
H    -5.102000000    -4.555000000    -4.487000000
O    -3.900000000     1.342000000    -2.242000000
H    -3.628000000     0.440000000    -2.071000000
H    -4.224000000     1.329000000    -3.142000000
O     2.784000000     0.792000000    -4.128000000
H     1.887000000     0.906000000    -3.816000000
H     3.321000000     1.268000000    -3.494000000
O     5.345000000     0.785000000    -5.381000000
H     4.822000000     0.893000000    -4.586000000
H     4.897000000     0.095000000    -5.870000000
O     3.496000000    -4.220000000     2.943000000
H     3.110000000    -4.019000000     2.090000000
H     3.799000000    -5.124000000     2.861000000
O    -2.979000000     3.785000000     0.608000000
H    -2.665000000     3.893000000     1.506000000
H    -3.882000000     3.482000000     0.705000000
O    -4.756000000    -4.250000000    -1.162000000
H    -4.751000000    -4.342000000    -2.114000000
H    -3.956000000    -3.763000000    -0.964000000
O    -3.520000000     1.992000000     3.773000000
H    -4.265000000     1.526000000     3.393000000
H    -2.846000000     1.320000000     3.877000000
O    -7.462000000    -2.437000000     1.692000000
H    -8.121000000    -3.008000000     1.297000000
H    -7.148000000    -2.926000000     2.453000000
O     1.473000000    -2.333000000    -3.705000000
H     1.264000000    -2.927000000    -4.426000000
H     2.427000000    -2.377000000    -3.628000000
O    -5.861000000    -1.241000000    -1.218000000
H    -4.938000000    -1.166000000    -0.977000000
H    -6.042000000    -2.180000000    -1.188000000
O    -6.374000000    -5.499000000     0.594000000
H    -5.772000000    -4.891000000     0.164000000
H    -5.855000000    -6.291000000     0.733000000
O    -3.904000000    -5.702000000     2.167000000
H    -3.592000000    -5.859000000     1.276000000
H    -4.176000000    -4.784000000     2.167000000
O    -1.283000000    -5.426000000    -2.157000000
H    -1.489000000    -4.637000000    -1.656000000
H    -1.382000000    -5.161000000    -3.072000000
O    -0.128000000    -0.131000000    -3.376000000
H    -0.183000000     0.004000000    -2.430000000
H     0.456000000    -0.883000000    -3.477000000
O    -1.351000000    -6.572000000     3.269000000
H    -0.997000000    -5.759000000     2.908000000
H    -2.174000000    -6.704000000     2.799000000
O    -0.629000000    -4.266000000     1.642000000
H     0.288000000    -4.015000000     1.536000000
H    -1.056000000    -3.956000000     0.844000000
O     7.787000000     0.035000000     0.199000000
H     7.941000000    -0.903000000     0.314000000
H     7.082000000     0.239000000     0.813000000
O    -1.992000000    -2.524000000     3.323000000
H    -2.928000000    -2.715000000     3.260000000
H    -1.564000000    -3.306000000     2.976000000
O     5.572000000     0.551000000     1.875000000
H     5.561000000     1.017000000     2.711000000
H     5.315000000    -0.344000000     2.097000000
O     2.113000000     4.196000000    -0.261000000
H     1.459000000     4.480000000    -0.899000000
H     2.878000000     3.967000000    -0.789000000
O     2.627000000     1.781000000     4.240000000
H     3.512000000     1.882000000     4.590000000
H     2.107000000     2.431000000     4.712000000
O     0.414000000    -6.635000000     0.116000000
H     0.076000000    -5.891000000     0.614000000
H    -0.098000000    -6.633000000    -0.693000000
O    -7.787000000    -0.078000000     0.374000000
H    -7.853000000    -0.700000000     1.099000000
H    -7.175000000    -0.488000000    -0.238000000
O     0.660000000     4.135000000     5.136000000
H    -0.010000000     3.546000000     5.483000000
H     0.551000000     4.088000000     4.186000000
O     3.192000000     4.159000000    -2.823000000
H     3.495000000     3.786000000    -3.650000000
H     2.249000000     4.276000000    -2.944000000
O     4.428000000     4.450000000     1.387000000
H     4.383000000     5.302000000     1.819000000
H     3.573000000     4.346000000     0.970000000
O     1.348000000    -0.423000000     2.853000000
H     1.287000000    -0.290000000     1.907000000
H     1.796000000     0.359000000     3.176000000
O    -5.818000000     0.574000000     3.296000000
H    -5.933000000     0.455000000     2.353000000
H    -6.697000000     0.471000000     3.659000000
O     5.805000000     2.669000000    -0.119000000
H     5.628000000     1.890000000     0.409000000
H     5.261000000     3.352000000     0.272000000
O     0.404000000     4.402000000    -2.644000000
H     0.141000000     5.303000000    -2.830000000
H    -0.411000000     3.902000000    -2.679000000
O    -1.125000000    -4.745000000    -4.926000000
H    -0.195000000    -4.675000000    -5.142000000
H    -1.484000000    -5.325000000    -5.598000000
O     4.136000000    -2.048000000    -0.503000000
H     4.926000000    -1.909000000     0.019000000
H     4.104000000    -1.296000000    -1.094000000
O     0.689000000     4.085000000     2.373000000
H     0.908000000     4.983000000     2.623000000
H     0.912000000     4.034000000     1.444000000
O    -1.452000000     0.304000000     3.523000000
H    -0.570000000     0.422000000     3.169000000
H    -1.622000000    -0.634000000     3.432000000
O     1.857000000    -2.494000000     4.440000000
H     2.524000000    -2.980000000     3.954000000
H     1.775000000    -1.665000000     3.969000000
O     2.286000000    -3.987000000     0.395000000
H     2.940000000    -3.441000000    -0.042000000
H     2.182000000    -4.743000000    -0.183000000
