158
-3034.75762
C     0.362000000    -1.385000000     0.308000000
H     0.692000000    -2.421000000     0.307000000
C     1.241000000    -0.435000000    -0.120000000
H     2.239000000    -0.821000000    -0.309000000
C     0.783000000     0.877000000    -0.369000000
H     1.508000000     1.707000000    -0.578000000
C    -0.556000000     1.235000000    -0.053000000
H    -0.892000000     2.268000000    -0.085000000
C    -1.392000000     0.240000000     0.406000000
H    -2.455000000     0.448000000     0.500000000
C    -0.999000000    -1.052000000     0.460000000
C    -1.995000000    -2.116000000     0.834000000
O    -1.653000000    -3.267000000     0.803000000
O    -3.149000000    -1.900000000     1.148000000
O    -6.564000000    -3.398000000     4.407000000
H    -5.646000000    -3.388000000     4.136000000
H    -6.941000000    -4.148000000     3.947000000
O    -0.185000000    -4.045000000     3.256000000
H    -0.658000000    -3.791000000     2.464000000
H     0.558000000    -3.444000000     3.295000000
O    -5.329000000    -0.313000000     0.312000000
H    -4.673000000    -0.946000000     0.603000000
H    -6.070000000    -0.848000000     0.030000000
O    -3.237000000    -0.538000000     3.354000000
H    -2.404000000    -0.407000000     3.806000000
H    -2.993000000    -0.896000000     2.501000000
O    -1.392000000     1.129000000    -3.858000000
H    -2.125000000     1.421000000    -4.400000000
H    -0.681000000     1.735000000    -4.069000000
O    -0.609000000     4.897000000     0.505000000
H    -0.989000000     5.558000000     1.084000000
H    -1.365000000     4.458000000     0.115000000
O     4.851000000    -2.051000000    -1.495000000
H     5.589000000    -1.963000000    -2.098000000
H     4.401000000    -2.846000000    -1.781000000
O     4.769000000     0.694000000     0.828000000
H     4.635000000    -0.184000000     1.186000000
H     4.483000000     1.283000000     1.526000000
O    -5.776000000     0.152000000     4.022000000
H    -5.942000000     0.909000000     3.460000000
H    -4.903000000    -0.149000000     3.766000000
O    -5.140000000    -4.235000000     0.585000000
H    -4.564000000    -3.523000000     0.861000000
H    -5.283000000    -4.749000000     1.380000000
O     2.593000000     7.207000000    -0.845000000
H     3.140000000     6.461000000    -1.090000000
H     3.015000000     7.567000000    -0.065000000
O    -4.370000000     1.402000000    -2.057000000
H    -4.913000000     1.041000000    -1.357000000
H    -3.967000000     0.636000000    -2.467000000
O     4.709000000     0.763000000    -1.899000000
H     4.676000000     1.048000000    -0.986000000
H     4.624000000    -0.190000000    -1.856000000
O     4.611000000     3.314000000     2.498000000
H     4.913000000     3.261000000     3.404000000
H     3.813000000     3.841000000     2.542000000
O     7.145000000     1.137000000    -2.939000000
H     7.176000000     2.092000000    -2.991000000
H     6.213000000     0.924000000    -2.981000000
O     7.209000000    -0.445000000    -0.511000000
H     7.364000000    -0.064000000    -1.376000000
H     6.580000000     0.147000000    -0.098000000
O     3.371000000    -1.578000000    -4.725000000
H     3.608000000    -0.834000000    -4.170000000
H     4.204000000    -1.883000000    -5.084000000
O    -3.042000000     3.936000000    -0.327000000
H    -3.724000000     4.519000000    -0.660000000
H    -2.932000000     3.279000000    -1.014000000
O    -0.030000000    -1.028000000    -2.874000000
H    -0.379000000    -0.180000000    -3.149000000
H     0.196000000    -0.907000000    -1.952000000
O    -2.684000000    -3.121000000    -1.806000000
H    -2.786000000    -3.074000000    -0.855000000
H    -2.626000000    -2.207000000    -2.086000000
O    -3.391000000     4.393000000     2.363000000
H    -4.210000000     4.887000000     2.323000000
H    -3.283000000     4.036000000     1.482000000
O     2.916000000     3.504000000    -3.059000000
H     3.561000000     4.191000000    -3.229000000
H     3.438000000     2.741000000    -2.812000000
O     0.535000000     2.692000000    -5.408000000
H     0.820000000     3.327000000    -4.751000000
H     1.078000000     2.879000000    -6.174000000
O    -2.948000000    -2.349000000     5.544000000
H    -3.517000000    -1.642000000     5.849000000
H    -3.278000000    -2.562000000     4.671000000
O     3.429000000    -4.245000000    -1.648000000
H     2.626000000    -3.727000000    -1.703000000
H     3.447000000    -4.746000000    -2.463000000
O     1.643000000    -5.940000000     2.288000000
H     1.282000000    -5.187000000     2.756000000
H     1.043000000    -6.076000000     1.555000000
O     5.358000000     1.802000000    -5.066000000
H     6.159000000     2.298000000    -5.234000000
H     4.743000000     2.451000000    -4.723000000
O     1.248000000    -3.249000000    -3.893000000
H     2.070000000    -3.038000000    -4.336000000
H     0.880000000    -2.398000000    -3.654000000
O    -3.983000000    -3.582000000     3.302000000
H    -3.764000000    -4.457000000     2.982000000
H    -3.610000000    -2.989000000     2.649000000
O    -7.251000000    -2.335000000     0.028000000
H    -6.776000000    -3.058000000     0.438000000
H    -7.513000000    -2.674000000    -0.827000000
O    -1.586000000    -5.990000000     4.702000000
H    -1.086000000    -5.342000000     4.206000000
H    -1.875000000    -5.521000000     5.485000000
O    -0.201000000    -5.487000000     0.478000000
H    -0.765000000    -4.771000000     0.773000000
H     0.021000000    -5.261000000    -0.425000000
O    -0.278000000    -4.719000000    -2.164000000
H    -1.093000000    -4.218000000    -2.192000000
H     0.198000000    -4.445000000    -2.949000000
O    -4.545000000    -5.156000000    -1.753000000
H    -3.849000000    -4.527000000    -1.941000000
H    -4.900000000    -4.876000000    -0.910000000
O    -3.389000000    -0.833000000    -3.199000000
H    -3.898000000    -1.381000000    -3.797000000
H    -2.746000000    -0.399000000    -3.760000000
O     0.738000000    -0.136000000    -5.933000000
H     0.845000000     0.783000000    -5.687000000
H     1.402000000    -0.600000000    -5.424000000
O    -3.486000000    -6.341000000     2.688000000
H    -3.150000000    -6.486000000     3.572000000
H    -3.170000000    -7.092000000     2.185000000
O     2.089000000     4.179000000     0.427000000
H     1.290000000     4.701000000     0.505000000
H     1.812000000     3.386000000    -0.033000000
O    -0.883000000     2.279000000     5.439000000
H    -0.081000000     2.063000000     5.915000000
H    -0.929000000     1.628000000     4.739000000
O    -0.637000000    -7.985000000    -1.300000000
H    -0.121000000    -7.963000000    -2.105000000
H    -0.612000000    -7.085000000    -0.974000000
O     4.889000000    -2.074000000     1.370000000
H     4.715000000    -2.077000000     0.429000000
H     5.838000000    -2.174000000     1.439000000
O     4.554000000     5.141000000    -0.391000000
H     3.732000000     4.881000000     0.024000000
H     5.224000000     4.947000000     0.265000000
O    -2.937000000     4.351000000    -3.317000000
H    -3.802000000     4.559000000    -2.963000000
H    -2.329000000     4.849000000    -2.770000000
O     0.923000000     5.703000000    -4.109000000
H     0.718000000     6.628000000    -3.976000000
H     1.037000000     5.354000000    -3.225000000
O    -5.756000000     2.104000000     2.148000000
H    -5.276000000     2.888000000     1.880000000
H    -5.560000000     1.459000000     1.468000000
O     1.878000000     0.380000000     3.243000000
H     2.239000000     0.812000000     4.017000000
H     1.976000000     1.024000000     2.542000000
O    -0.718000000    -0.541000000     3.840000000
H     0.143000000    -0.260000000     3.530000000
H    -0.528000000    -1.199000000     4.509000000
O     2.329000000    -2.790000000     2.731000000
H     2.999000000    -2.991000000     2.078000000
H     2.434000000    -1.855000000     2.904000000
