158
-3044.34836
C     0.087000000    -1.289000000     0.742000000
H     0.140000000    -2.048000000     1.518000000
C     1.103000000    -0.378000000     0.627000000
H     1.896000000    -0.416000000     1.369000000
C     0.985000000     0.726000000    -0.236000000
H     1.831000000     1.406000000    -0.227000000
C    -0.217000000     0.934000000    -0.972000000
H    -0.225000000     1.732000000    -1.709000000
C    -1.267000000     0.066000000    -0.709000000
H    -2.248000000     0.309000000    -1.109000000
C    -1.158000000    -0.995000000     0.143000000
C    -2.313000000    -2.019000000     0.312000000
O    -2.287000000    -2.896000000     1.206000000
O    -3.497000000    -1.656000000     0.052000000
O    -7.312000000    -4.181000000     1.814000000
H    -6.378000000    -3.990000000     1.905000000
H    -7.342000000    -5.089000000     1.513000000
O    -1.247000000    -3.505000000     3.754000000
H    -1.716000000    -3.106000000     3.022000000
H    -0.358000000    -3.155000000     3.689000000
O    -5.091000000    -0.114000000    -1.313000000
H    -4.664000000    -0.821000000    -0.830000000
H    -4.690000000     0.686000000    -0.972000000
O    -4.624000000    -0.899000000     2.472000000
H    -3.925000000    -0.367000000     2.854000000
H    -4.319000000    -1.097000000     1.587000000
O    -0.769000000     0.187000000    -6.209000000
H    -1.182000000     0.933000000    -5.775000000
H     0.049000000     0.053000000    -5.730000000
O    -1.943000000     3.289000000     1.210000000
H    -2.371000000     4.060000000     1.584000000
H    -1.679000000     2.770000000     1.970000000
O     3.966000000    -3.266000000    -0.457000000
H     3.279000000    -3.648000000     0.090000000
H     3.640000000    -3.361000000    -1.352000000
O    -3.048000000     5.224000000    -1.526000000
H    -3.389000000     5.758000000    -0.808000000
H    -3.817000000     4.771000000    -1.873000000
O     5.025000000     0.681000000     1.162000000
H     5.773000000     0.904000000     1.716000000
H     4.634000000     1.525000000     0.936000000
O    -3.203000000     0.011000000    -3.417000000
H    -3.836000000    -0.079000000    -2.704000000
H    -3.726000000    -0.077000000    -4.214000000
O     4.825000000    -0.303000000    -1.958000000
H     4.606000000     0.408000000    -1.357000000
H     5.640000000    -0.668000000    -1.612000000
O     3.913000000     3.152000000     0.546000000
H     3.359000000     3.900000000     0.770000000
H     3.636000000     2.905000000    -0.336000000
O    -2.647000000    -2.596000000     6.148000000
H    -2.047000000    -3.045000000     5.553000000
H    -3.475000000    -2.558000000     5.670000000
O     3.389000000    -1.020000000    -4.031000000
H     3.985000000    -0.742000000    -3.336000000
H     3.617000000    -1.936000000    -4.189000000
O    -4.443000000     2.408000000    -0.376000000
H    -4.888000000     3.232000000    -0.573000000
H    -3.603000000     2.673000000    -0.002000000
O    -0.706000000     6.609000000    -1.375000000
H    -1.506000000     6.092000000    -1.465000000
H    -0.067000000     5.999000000    -1.006000000
O    -1.700000000    -2.389000000    -3.093000000
H    -0.766000000    -2.215000000    -2.973000000
H    -2.078000000    -1.533000000    -3.295000000
O    -4.637000000    -4.320000000    -1.115000000
H    -4.521000000    -3.601000000    -0.494000000
H    -5.392000000    -4.804000000    -0.781000000
O    -5.230000000     2.350000000     2.573000000
H    -6.051000000     2.223000000     2.098000000
H    -4.550000000     2.087000000     1.952000000
O     3.393000000     2.612000000    -1.908000000
H     2.532000000     2.777000000    -2.292000000
H     3.983000000     2.553000000    -2.660000000
O     1.968000000     1.026000000    -5.306000000
H     2.584000000     0.324000000    -5.099000000
H     2.199000000     1.733000000    -4.703000000
O    -4.859000000    -3.399000000     4.677000000
H    -4.890000000    -3.274000000     3.729000000
H    -5.040000000    -4.330000000     4.803000000
O     1.768000000    -5.076000000    -1.929000000
H     1.304000000    -5.720000000    -2.465000000
H     1.282000000    -4.262000000    -2.057000000
O     2.054000000    -3.968000000     1.284000000
H     1.733000000    -3.906000000     2.184000000
H     1.268000000    -4.124000000     0.760000000
O    -5.007000000    -6.112000000     4.167000000
H    -4.944000000    -5.785000000     3.269000000
H    -5.531000000    -6.910000000     4.095000000
O     1.034000000    -1.977000000    -2.490000000
H     1.765000000    -1.796000000    -3.081000000
H     1.016000000    -1.227000000    -1.895000000
O    -4.323000000    -4.306000000     2.064000000
H    -3.956000000    -5.129000000     1.741000000
H    -3.662000000    -3.648000000     1.849000000
O    -0.550000000    -6.192000000     3.383000000
H    -0.312000000    -6.031000000     2.470000000
H    -1.109000000    -5.452000000     3.619000000
O    -0.579000000    -4.913000000     0.887000000
H    -1.212000000    -4.196000000     0.840000000
H    -0.915000000    -5.569000000     0.277000000
O    -3.769000000    -4.185000000    -3.615000000
H    -4.077000000    -4.275000000    -2.714000000
H    -3.083000000    -3.519000000    -3.568000000
O     6.860000000     3.539000000     0.235000000
H     7.153000000     3.296000000     1.113000000
H     5.907000000     3.587000000     0.304000000
O    -3.468000000    -6.748000000     1.197000000
H    -3.565000000    -7.609000000     1.602000000
H    -2.910000000    -6.903000000     0.435000000
O    -7.530000000    -0.367000000    -2.302000000
H    -6.784000000    -0.134000000    -1.750000000
H    -7.635000000    -1.310000000    -2.177000000
O     0.349000000     4.325000000    -0.121000000
H    -0.416000000     3.852000000     0.208000000
H     0.806000000     4.619000000     0.667000000
O    -2.014000000     2.100000000    -4.842000000
H    -2.367000000     1.504000000    -4.181000000
H    -1.719000000     2.862000000    -4.343000000
O     4.194000000    -1.779000000     1.911000000
H     4.583000000    -0.909000000     1.823000000
H     4.185000000    -2.129000000     1.020000000
O     1.730000000     5.446000000     2.045000000
H     1.198000000     5.613000000     2.823000000
H     2.342000000     6.181000000     2.010000000
O    -1.105000000     4.549000000    -3.771000000
H    -1.266000000     5.375000000    -4.228000000
H    -1.206000000     4.764000000    -2.844000000
O     4.634000000    -2.499000000     4.553000000
H     4.755000000    -3.446000000     4.495000000
H     4.613000000    -2.204000000     3.642000000
O     2.103000000     2.218000000     3.183000000
H     2.085000000     2.776000000     2.405000000
H     2.442000000     2.785000000     3.876000000
O     1.541000000     3.597000000    -3.812000000
H     0.621000000     3.416000000    -3.617000000
H     1.562000000     4.530000000    -4.022000000
O     5.404000000     2.990000000    -3.841000000
H     6.054000000     3.281000000    -3.202000000
H     4.890000000     3.774000000    -4.034000000
O    -1.490000000    -6.659000000    -0.991000000
H    -2.114000000    -6.480000000    -1.695000000
H    -0.878000000    -7.291000000    -1.368000000
O     4.117000000     4.462000000     3.709000000
H     3.357000000     4.843000000     4.149000000
H     4.326000000     5.083000000     3.012000000
O    -0.452000000     1.190000000     2.766000000
H     0.365000000     1.409000000     3.213000000
H    -0.189000000     0.597000000     2.062000000
O    -2.397000000     0.075000000     4.388000000
H    -1.742000000     0.381000000     3.759000000
H    -2.091000000    -0.793000000     4.649000000
O     4.844000000     1.808000000     3.990000000
H     4.723000000     2.757000000     4.027000000
H     4.077000000     1.487000000     3.516000000
O     1.327000000    -2.176000000     3.950000000
H     1.925000000    -1.445000000     3.795000000
H     1.566000000    -2.501000000     4.818000000
