158
-3020.83988
C     1.220000000    -0.760000000     0.051000000
H     2.029000000    -1.447000000     0.287000000
C     0.390000000    -0.551000000     1.155000000
H     0.555000000    -1.069000000     2.096000000
C    -0.786000000     0.166000000     0.934000000
H    -1.443000000     0.410000000     1.789000000
C    -1.009000000     0.665000000    -0.326000000
H    -1.858000000     1.311000000    -0.534000000
C    -0.113000000     0.587000000    -1.428000000
H    -0.248000000     1.074000000    -2.391000000
C     0.998000000    -0.225000000    -1.220000000
C     1.996000000    -0.497000000    -2.335000000
O     1.720000000    -0.111000000    -3.471000000
O     2.987000000    -1.100000000    -2.107000000
O     4.564000000    -5.838000000    -2.147000000
H     5.166000000    -5.669000000    -2.872000000
H     4.161000000    -4.989000000    -1.968000000
O    -3.833000000     3.125000000    -0.942000000
H    -4.480000000     3.463000000    -0.323000000
H    -3.914000000     2.174000000    -0.877000000
O    -2.781000000    -2.696000000     1.225000000
H    -2.504000000    -1.945000000     0.700000000
H    -3.688000000    -2.851000000     0.961000000
O     0.252000000     1.913000000     2.941000000
H    -0.005000000     1.051000000     2.613000000
H     1.161000000     2.014000000     2.660000000
O    -1.946000000    -3.012000000     3.877000000
H    -1.911000000    -2.995000000     2.921000000
H    -2.801000000    -2.639000000     4.092000000
O     4.169000000     1.318000000     3.964000000
H     3.788000000     0.824000000     4.689000000
H     3.762000000     2.183000000     4.024000000
O     4.204000000    -3.216000000    -6.103000000
H     4.384000000    -2.780000000    -5.270000000
H     3.821000000    -2.533000000    -6.654000000
O     0.966000000    -1.957000000    -5.565000000
H     1.154000000    -1.369000000    -4.833000000
H     1.382000000    -1.539000000    -6.319000000
O    -1.965000000     0.674000000     5.516000000
H    -1.608000000     1.235000000     6.204000000
H    -2.308000000    -0.088000000     5.983000000
O    -3.987000000    -1.236000000     3.955000000
H    -4.638000000    -0.899000000     4.570000000
H    -4.504000000    -1.620000000     3.246000000
O    -4.167000000    -0.680000000    -4.227000000
H    -4.401000000    -1.038000000    -3.371000000
H    -3.614000000    -1.353000000    -4.625000000
O     0.473000000    -4.375000000     3.966000000
H     0.154000000    -5.189000000     4.354000000
H    -0.304000000    -3.821000000     3.896000000
O     1.763000000    -5.017000000     1.922000000
H     1.029000000    -5.013000000     1.308000000
H     1.416000000    -4.608000000     2.714000000
O     2.212000000     2.098000000     0.493000000
H     1.585000000     1.426000000     0.759000000
H     3.059000000     1.652000000     0.500000000
O     3.025000000    -1.372000000    -7.801000000
H     3.031000000    -1.642000000    -8.719000000
H     2.877000000    -0.427000000    -7.830000000
O     3.550000000     4.959000000    -3.453000000
H     3.101000000     4.181000000    -3.122000000
H     3.619000000     5.538000000    -2.694000000
O    -6.525000000     2.718000000     3.775000000
H    -6.888000000     2.133000000     3.110000000
H    -5.582000000     2.709000000     3.611000000
O    -5.916000000     3.791000000     1.012000000
H    -6.593000000     3.390000000     0.468000000
H    -6.191000000     3.608000000     1.911000000
O    -4.451000000     3.637000000     6.040000000
H    -4.152000000     3.280000000     5.204000000
H    -4.583000000     4.569000000     5.869000000
O    -6.012000000    -1.639000000     1.735000000
H    -5.793000000    -2.209000000     0.997000000
H    -6.961000000    -1.720000000     1.827000000
O    -0.033000000     3.667000000     5.038000000
H     0.073000000     3.315000000     5.921000000
H     0.104000000     2.915000000     4.462000000
O     5.512000000    -3.309000000     0.860000000
H     5.377000000    -4.130000000     1.332000000
H     5.325000000    -2.628000000     1.506000000
O    -0.109000000    -0.897000000     4.660000000
H    -0.747000000    -1.608000000     4.730000000
H    -0.615000000    -0.103000000     4.830000000
O    -4.275000000     0.342000000     0.948000000
H    -5.047000000    -0.074000000     1.332000000
H    -3.662000000     0.430000000     1.679000000
O    -2.742000000    -1.832000000     6.634000000
H    -3.198000000    -1.888000000     5.794000000
H    -3.443000000    -1.775000000     7.284000000
O     5.586000000     1.269000000    -2.494000000
H     6.353000000     1.766000000    -2.777000000
H     4.959000000     1.366000000    -3.211000000
O     6.350000000    -2.223000000    -3.244000000
H     5.720000000    -1.707000000    -3.746000000
H     7.162000000    -2.168000000    -3.749000000
O     0.093000000     1.077000000    -6.604000000
H    -0.863000000     1.031000000    -6.575000000
H     0.344000000     1.371000000    -5.728000000
O     4.260000000     1.932000000    -5.093000000
H     3.565000000     2.581000000    -5.202000000
H     4.941000000     2.205000000    -5.708000000
O     2.240000000    -2.346000000     6.202000000
H     2.080000000    -3.286000000     6.287000000
H     1.744000000    -2.087000000     5.426000000
O     1.033000000    -4.240000000    -1.497000000
H     0.684000000    -4.229000000    -2.388000000
H     1.946000000    -3.967000000    -1.594000000
O     6.523000000    -0.379000000    -6.083000000
H     6.283000000     0.352000000    -6.651000000
H     5.775000000    -0.482000000    -5.495000000
O     3.684000000    -3.481000000    -1.248000000
H     3.453000000    -2.624000000    -1.604000000
H     4.385000000    -3.300000000    -0.621000000
O     1.854000000     3.644000000    -1.881000000
H     1.970000000     4.484000000    -1.437000000
H     1.697000000     3.018000000    -1.174000000
O    -2.783000000     0.658000000    -6.462000000
H    -2.774000000    -0.285000000    -6.296000000
H    -2.928000000     1.051000000    -5.601000000
O    -1.339000000     3.689000000    -5.091000000
H    -0.407000000     3.554000000    -5.262000000
H    -1.382000000     3.913000000    -4.161000000
O     5.319000000    -0.536000000     2.096000000
H     4.763000000    -0.031000000     2.690000000
H     5.131000000    -0.176000000     1.229000000
O     8.127000000    -1.224000000    -1.223000000
H     7.246000000    -1.043000000    -1.549000000
H     7.995000000    -1.840000000    -0.503000000
O     4.448000000     0.234000000    -0.357000000
H     3.887000000    -0.420000000    -0.774000000
H     4.995000000     0.567000000    -1.068000000
O     4.155000000    -0.882000000    -4.563000000
H     3.759000000    -0.054000000    -4.834000000
H     3.806000000    -1.039000000    -3.686000000
O     0.953000000     2.241000000    -4.236000000
H     1.146000000     1.384000000    -3.856000000
H     0.874000000     2.825000000    -3.481000000
O    -4.459000000    -1.207000000    -1.599000000
H    -3.665000000    -1.712000000    -1.776000000
H    -4.290000000    -0.782000000    -0.758000000
O    -0.746000000    -4.473000000     0.571000000
H    -1.435000000    -3.809000000     0.572000000
H    -0.180000000    -4.228000000    -0.161000000
O    -2.259000000     5.539000000    -0.399000000
H    -1.808000000     5.571000000    -1.243000000
H    -3.068000000     5.061000000    -0.577000000
O    -2.350000000     2.971000000     1.479000000
H    -2.556000000     3.042000000     0.547000000
H    -1.446000000     2.658000000     1.501000000
O    -1.977000000    -2.694000000    -2.014000000
H    -2.468000000    -3.513000000    -2.065000000
H    -1.216000000    -2.835000000    -2.577000000
O    -3.450000000     2.570000000     3.768000000
H    -2.687000000     2.267000000     4.260000000
H    -3.108000000     2.775000000     2.898000000
O    -0.182000000    -3.767000000    -4.185000000
H    -1.006000000    -4.086000000    -4.553000000
H     0.126000000    -3.117000000    -4.816000000
