158
-3008.93744
C     0.259000000    -1.437000000     0.573000000
H     0.367000000    -2.456000000     0.937000000
C     1.094000000    -0.748000000    -0.377000000
H     2.004000000    -1.237000000    -0.716000000
C     0.729000000     0.493000000    -0.862000000
H     1.339000000     0.975000000    -1.752000000
C    -0.414000000     1.128000000    -0.410000000
H    -0.663000000     2.129000000    -0.752000000
C    -1.198000000     0.495000000     0.554000000
H    -2.030000000     1.046000000     0.986000000
C    -0.902000000    -0.804000000     1.049000000
C    -1.858000000    -1.388000000     1.998000000
O    -1.786000000    -2.518000000     2.367000000
O    -2.863000000    -0.824000000     2.334000000
O    -4.234000000    -6.669000000     2.087000000
H    -3.880000000    -7.266000000     2.746000000
H    -4.139000000    -5.799000000     2.476000000
O    -4.118000000     3.110000000     1.553000000
H    -4.463000000     2.283000000     1.890000000
H    -4.339000000     3.100000000     0.622000000
O     2.520000000    -3.837000000     3.153000000
H     3.037000000    -4.305000000     3.808000000
H     2.610000000    -4.360000000     2.357000000
O    -4.433000000     1.034000000     3.473000000
H    -3.858000000     1.730000000     3.790000000
H    -3.837000000     0.345000000     3.180000000
O     3.822000000    -1.550000000     3.916000000
H     3.072000000    -2.072000000     3.631000000
H     4.562000000    -2.155000000     3.880000000
O    -3.904000000     2.058000000    -3.825000000
H    -3.662000000     2.977000000    -3.715000000
H    -4.076000000     1.965000000    -4.762000000
O    -3.168000000    -3.078000000    -2.038000000
H    -3.445000000    -2.196000000    -2.285000000
H    -2.235000000    -2.989000000    -1.841000000
O     1.182000000     1.721000000    -6.650000000
H     0.871000000     0.869000000    -6.346000000
H     0.994000000     2.317000000    -5.925000000
O     1.034000000    -1.224000000    -6.290000000
H     1.897000000    -1.537000000    -6.559000000
H     0.696000000    -1.914000000    -5.718000000
O     4.545000000     0.676000000     0.888000000
H     5.156000000     0.647000000     1.625000000
H     4.932000000     0.097000000     0.232000000
O    -2.131000000     4.756000000     2.473000000
H    -2.842000000     4.165000000     2.224000000
H    -1.341000000     4.220000000     2.408000000
O    -4.361000000    -3.575000000     0.376000000
H    -3.811000000    -3.308000000     1.113000000
H    -3.770000000    -3.575000000    -0.376000000
O     0.701000000     3.351000000    -4.238000000
H     0.226000000     4.106000000    -4.584000000
H     1.482000000     3.726000000    -3.830000000
O    -3.750000000    -1.763000000     7.645000000
H    -3.361000000    -1.776000000     6.770000000
H    -4.326000000    -0.998000000     7.639000000
O    -0.045000000     3.564000000     1.764000000
H     0.582000000     3.939000000     2.383000000
H     0.266000000     2.670000000     1.620000000
O    -1.110000000     1.250000000    -4.272000000
H    -1.858000000     1.847000000    -4.304000000
H    -0.411000000     1.764000000    -3.867000000
O     5.426000000     1.649000000    -2.279000000
H     6.203000000     2.073000000    -2.644000000
H     4.691000000     2.082000000    -2.711000000
O    -2.748000000    -6.373000000    -0.334000000
H    -3.254000000    -6.660000000     0.427000000
H    -2.236000000    -5.630000000    -0.015000000
O     1.508000000     4.869000000    -0.629000000
H     0.647000000     4.496000000    -0.439000000
H     1.496000000     5.726000000    -0.202000000
O    -5.017000000    -0.411000000     0.135000000
H    -5.217000000    -0.985000000    -0.604000000
H    -4.591000000    -0.982000000     0.774000000
O    -3.610000000    -4.176000000     3.233000000
H    -3.055000000    -3.478000000     2.885000000
H    -3.193000000    -4.424000000     4.058000000
O     6.066000000     5.205000000    -0.870000000
H     5.348000000     4.801000000    -0.382000000
H     6.859000000     4.865000000    -0.456000000
O    -3.051000000     2.721000000     5.035000000
H    -3.062000000     2.916000000     5.972000000
H    -3.468000000     3.481000000     4.628000000
O     2.834000000    -3.296000000    -1.976000000
H     3.549000000    -2.701000000    -1.749000000
H     2.740000000    -3.206000000    -2.925000000
O    -5.985000000     1.426000000     5.954000000
H    -5.460000000     1.324000000     5.160000000
H    -6.708000000     0.809000000     5.845000000
O    -0.354000000    -2.947000000    -1.878000000
H     0.233000000    -2.216000000    -1.685000000
H     0.231000000    -3.683000000    -2.055000000
O    -6.746000000     1.509000000     1.958000000
H    -6.181000000     1.318000000     2.707000000
H    -6.930000000     0.653000000     1.572000000
O    -5.769000000    -1.761000000     4.798000000
H    -5.674000000    -1.683000000     3.849000000
H    -6.506000000    -1.189000000     5.012000000
O    -2.978000000    -1.652000000     4.988000000
H    -3.932000000    -1.725000000     4.971000000
H    -2.745000000    -1.351000000     4.110000000
O    -0.478000000    -2.920000000    -4.735000000
H    -0.377000000    -2.766000000    -3.796000000
H    -0.794000000    -3.821000000    -4.798000000
O    -1.234000000     4.953000000    -0.451000000
H    -2.180000000     4.818000000    -0.507000000
H    -1.003000000     4.667000000     0.433000000
O     5.804000000    -0.661000000    -4.077000000
H     6.705000000    -0.860000000    -3.823000000
H     5.544000000    -1.398000000    -4.631000000
O    -4.674000000     1.875000000    -0.983000000
H    -4.797000000     1.006000000    -0.601000000
H    -3.797000000     1.847000000    -1.365000000
O     0.618000000    -2.257000000     7.025000000
H     0.520000000    -2.827000000     6.262000000
H     0.283000000    -1.409000000     6.735000000
O     0.103000000    -3.557000000     4.211000000
H     0.873000000    -3.709000000     3.664000000
H    -0.287000000    -2.757000000     3.859000000
O    -3.132000000    -0.402000000    -2.377000000
H    -3.178000000     0.273000000    -3.054000000
H    -2.345000000    -0.185000000    -1.876000000
O    -2.037000000     7.146000000    -2.150000000
H    -1.515000000     6.361000000    -1.983000000
H    -2.193000000     7.519000000    -1.282000000
O    -1.179000000    -7.367000000     3.210000000
H    -1.260000000    -6.785000000     3.966000000
H    -0.237000000    -7.435000000     3.060000000
O    -1.003000000     0.295000000     6.413000000
H    -1.916000000     0.015000000     6.341000000
H    -0.750000000     0.517000000     5.517000000
O    -1.562000000    -5.459000000     5.319000000
H    -2.117000000    -5.038000000     5.975000000
H    -1.026000000    -4.748000000     4.968000000
O     4.682000000     5.486000000    -3.182000000
H     3.995000000     4.829000000    -3.065000000
H     5.128000000     5.519000000    -2.335000000
O     3.005000000     3.568000000    -2.251000000
H     3.487000000     3.024000000    -1.628000000
H     2.457000000     4.131000000    -1.705000000
O     5.274000000    -1.177000000    -1.180000000
H     5.381000000    -0.736000000    -2.023000000
H     5.661000000    -2.042000000    -1.311000000
O    -1.138000000    -4.731000000     1.251000000
H    -0.981000000    -5.370000000     1.946000000
H    -1.326000000    -3.914000000     1.713000000
O     3.034000000    -6.243000000    -1.956000000
H     3.126000000    -5.319000000    -2.187000000
H     2.366000000    -6.574000000    -2.556000000
O    -0.436000000     1.376000000     3.779000000
H    -1.194000000     1.534000000     3.217000000
H     0.212000000     0.976000000     3.199000000
O     1.810000000     1.251000000     2.198000000
H     2.424000000     1.195000000     2.930000000
H     2.129000000     0.604000000     1.568000000
O     3.419000000    -5.454000000     1.133000000
H     3.570000000    -5.186000000     0.227000000
H     4.266000000    -5.791000000     1.428000000
