158
-3058.74313
C    -1.166000000    -0.226000000     0.936000000
H    -2.050000000    -0.464000000     1.522000000
C    -0.457000000    -1.210000000     0.255000000
H    -0.810000000    -2.229000000     0.388000000
C     0.587000000    -0.848000000    -0.630000000
H     1.169000000    -1.688000000    -1.067000000
C     0.885000000     0.458000000    -0.900000000
H     1.600000000     0.595000000    -1.707000000
C     0.311000000     1.431000000    -0.111000000
H     0.661000000     2.459000000    -0.159000000
C    -0.727000000     1.066000000     0.835000000
C    -1.388000000     2.117000000     1.637000000
O    -2.191000000     1.750000000     2.501000000
O    -1.200000000     3.318000000     1.477000000
O     4.831000000    -1.982000000     0.254000000
H     5.154000000    -1.327000000    -0.365000000
H     5.622000000    -2.404000000     0.590000000
O     4.332000000     0.271000000    -3.970000000
H     3.992000000     0.486000000    -4.838000000
H     4.375000000     1.111000000    -3.514000000
O    -4.634000000    -2.029000000     2.414000000
H    -4.354000000    -1.218000000     2.839000000
H    -5.477000000    -2.233000000     2.819000000
O     1.269000000     4.911000000     4.952000000
H     0.624000000     5.009000000     4.251000000
H     1.692000000     5.768000000     5.009000000
O     3.441000000    -5.605000000    -2.421000000
H     3.090000000    -6.018000000    -1.632000000
H     2.667000000    -5.342000000    -2.919000000
O     0.639000000     8.117000000     1.407000000
H     0.636000000     7.281000000     0.942000000
H     1.326000000     8.022000000     2.067000000
O    -4.122000000     5.060000000     4.767000000
H    -3.602000000     4.371000000     5.182000000
H    -4.164000000     4.806000000     3.845000000
O    -0.941000000    -6.030000000    -4.651000000
H    -0.691000000    -5.566000000    -3.851000000
H    -0.167000000    -6.543000000    -4.882000000
O    -4.502000000    -5.046000000    -1.097000000
H    -4.089000000    -4.386000000    -0.540000000
H    -3.824000000    -5.711000000    -1.222000000
O     3.940000000    -4.209000000     1.597000000
H     3.570000000    -3.835000000     2.396000000
H     4.030000000    -3.464000000     1.003000000
O    -2.301000000    -3.200000000     5.371000000
H    -3.136000000    -2.733000000     5.390000000
H    -1.666000000    -2.544000000     5.084000000
O    -4.201000000    -0.962000000    -2.225000000
H    -4.298000000    -0.903000000    -3.176000000
H    -4.510000000    -0.116000000    -1.901000000
O    -3.463000000    -2.847000000     0.074000000
H    -3.677000000    -2.247000000    -0.640000000
H    -3.781000000    -2.406000000     0.862000000
O    -3.499000000    -3.998000000    -4.070000000
H    -3.443000000    -4.941000000    -3.921000000
H    -3.423000000    -3.612000000    -3.198000000
O     3.208000000     2.120000000    -5.969000000
H     2.353000000     2.501000000    -5.771000000
H     3.211000000     2.020000000    -6.920000000
O    -0.775000000     4.073000000     6.527000000
H     0.067000000     4.165000000     6.082000000
H    -1.346000000     3.661000000     5.878000000
O     6.218000000    -2.775000000    -2.207000000
H     5.334000000    -2.872000000    -2.561000000
H     6.454000000    -3.653000000    -1.908000000
O    -3.251000000     6.447000000    -1.541000000
H    -3.120000000     5.673000000    -0.994000000
H    -2.582000000     6.375000000    -2.221000000
O     0.469000000    -5.837000000     1.704000000
H    -0.376000000    -5.822000000     1.255000000
H     0.668000000    -4.917000000     1.873000000
O    -4.431000000     3.658000000     2.311000000
H    -3.731000000     3.030000000     2.486000000
H    -5.149000000     3.127000000     1.967000000
O    -0.866000000     0.062000000     6.005000000
H    -1.110000000     0.054000000     6.930000000
H     0.011000000     0.446000000     5.991000000
O     1.792000000     3.958000000    -4.594000000
H     1.974000000     4.781000000    -4.140000000
H     0.839000000     3.878000000    -4.572000000
O    -1.975000000     7.395000000     4.517000000
H    -1.630000000     6.537000000     4.270000000
H    -1.971000000     7.388000000     5.474000000
O    -2.769000000    -4.330000000     2.849000000
H    -3.264000000    -3.532000000     2.661000000
H    -2.399000000    -4.183000000     3.719000000
O     5.447000000     0.260000000    -1.107000000
H     5.621000000     1.201000000    -1.105000000
H     5.091000000     0.084000000    -1.978000000
O     5.277000000    -4.666000000    -4.328000000
H     4.700000000    -5.055000000    -3.670000000
H     5.000000000    -3.751000000    -4.379000000
O    -1.784000000    -4.988000000     0.407000000
H    -2.289000000    -4.199000000     0.207000000
H    -1.908000000    -5.120000000     1.347000000
O     4.151000000     2.761000000    -3.151000000
H     3.416000000     3.127000000    -3.643000000
H     4.917000000     3.231000000    -3.480000000
O    -0.876000000    -1.542000000     3.590000000
H    -0.563000000    -0.960000000     2.898000000
H    -1.117000000    -0.954000000     4.307000000
O     2.771000000    -6.253000000     0.416000000
H     1.964000000    -6.206000000     0.928000000
H     3.312000000    -5.540000000     0.756000000
O    -0.523000000     5.353000000     3.004000000
H    -0.297000000     5.976000000     2.313000000
H    -0.813000000     4.571000000     2.535000000
O    -4.313000000     0.391000000     3.381000000
H    -4.704000000     0.999000000     4.008000000
H    -3.646000000     0.908000000     2.930000000
O    -2.583000000     2.675000000     4.846000000
H    -2.324000000     1.776000000     5.050000000
H    -2.598000000     2.709000000     3.890000000
O     3.908000000    -2.386000000    -4.101000000
H     3.807000000    -1.448000000    -3.942000000
H     3.027000000    -2.744000000    -3.992000000
O     0.940000000    -0.972000000    -4.057000000
H     0.919000000    -0.099000000    -4.450000000
H     0.030000000    -1.149000000    -3.819000000
O    -0.612000000    -4.145000000    -2.143000000
H    -1.047000000    -3.300000000    -2.256000000
H    -0.817000000    -4.401000000    -1.243000000
O    -1.221000000     3.342000000    -4.338000000
H    -1.788000000     2.660000000    -3.977000000
H    -1.786000000     3.830000000    -4.938000000
O     0.413000000     5.469000000     0.390000000
H    -0.069000000     4.643000000     0.355000000
H     1.326000000     5.220000000     0.243000000
O     2.598000000    -0.722000000     1.724000000
H     1.901000000    -1.124000000     1.205000000
H     3.398000000    -0.906000000     1.233000000
O    -3.113000000     3.858000000    -0.323000000
H    -4.017000000     3.736000000    -0.032000000
H    -2.586000000     3.683000000     0.456000000
O    -2.610000000     1.845000000    -2.654000000
H    -2.499000000     2.593000000    -2.068000000
H    -3.174000000     1.242000000    -2.169000000
O    -2.484000000    -6.813000000    -1.614000000
H    -2.632000000    -7.682000000    -1.240000000
H    -2.017000000    -6.333000000    -0.930000000
O     3.038000000     1.988000000     2.336000000
H     2.679000000     2.247000000     3.185000000
H     2.452000000     1.296000000     2.030000000
O     1.488000000    -3.501000000     3.188000000
H     0.592000000    -3.176000000     3.102000000
H     1.471000000    -4.043000000     3.977000000
O     2.860000000     4.413000000     0.644000000
H     2.964000000     3.564000000     1.075000000
H     3.456000000     4.376000000    -0.104000000
O     1.487000000    -3.774000000    -3.821000000
H     0.881000000    -4.158000000    -3.188000000
H     1.249000000    -2.847000000    -3.848000000
O    -1.543000000    -1.731000000    -3.201000000
H    -2.024000000    -1.213000000    -2.557000000
H    -2.007000000    -1.581000000    -4.025000000
O    -6.699000000     2.528000000     1.633000000
H    -7.353000000     2.657000000     0.947000000
H    -7.111000000     2.875000000     2.425000000
