158
-3033.52062
C     1.276000000     0.472000000     0.617000000
H     2.132000000     0.942000000     1.094000000
C     0.024000000     1.074000000     0.673000000
H    -0.116000000     1.977000000     1.261000000
C    -1.116000000     0.532000000     0.042000000
H    -2.013000000     1.169000000     0.136000000
C    -0.983000000    -0.568000000    -0.711000000
H    -1.849000000    -0.925000000    -1.261000000
C     0.290000000    -1.175000000    -0.874000000
H     0.379000000    -2.101000000    -1.437000000
C     1.424000000    -0.622000000    -0.208000000
C     2.799000000    -1.332000000    -0.350000000
O     2.834000000    -2.541000000    -0.429000000
O     3.836000000    -0.731000000    -0.303000000
O    -3.113000000     6.231000000     3.824000000
H    -2.778000000     5.335000000     3.799000000
H    -3.930000000     6.196000000     3.328000000
O    -2.885000000     4.271000000    -3.170000000
H    -3.173000000     5.179000000    -3.075000000
H    -1.942000000     4.334000000    -3.321000000
O     7.729000000     2.714000000    -0.251000000
H     7.724000000     2.070000000     0.457000000
H     6.932000000     2.529000000    -0.749000000
O    -4.159000000     0.263000000    -1.504000000
H    -4.240000000     1.190000000    -1.279000000
H    -4.310000000    -0.198000000    -0.679000000
O    -0.881000000    -4.632000000     1.590000000
H    -0.771000000    -3.683000000     1.648000000
H    -0.854000000    -4.820000000     0.652000000
O     5.492000000    -6.427000000    -0.007000000
H     5.326000000    -6.565000000    -0.939000000
H     5.364000000    -5.487000000     0.122000000
O    -4.889000000     2.013000000     4.204000000
H    -5.290000000     2.647000000     4.798000000
H    -4.857000000     1.200000000     4.708000000
O     5.001000000     4.136000000     2.713000000
H     4.422000000     3.897000000     1.989000000
H     4.816000000     5.061000000     2.873000000
O     3.782000000    -0.090000000     4.351000000
H     3.721000000     0.865000000     4.329000000
H     4.608000000    -0.287000000     3.909000000
O     4.813000000    -3.965000000    -3.353000000
H     5.108000000    -3.385000000    -2.651000000
H     3.908000000    -3.701000000    -3.518000000
O    -2.614000000     3.594000000     3.993000000
H    -1.804000000     3.319000000     4.422000000
H    -3.225000000     2.875000000     4.153000000
O     0.006000000    -4.525000000    -3.573000000
H     0.676000000    -5.055000000    -3.141000000
H     0.025000000    -4.813000000    -4.486000000
O     7.942000000    -2.955000000    -2.941000000
H     7.163000000    -2.619000000    -2.498000000
H     7.747000000    -3.879000000    -3.100000000
O    -0.282000000     2.618000000     5.056000000
H     0.229000000     1.816000000     5.162000000
H     0.361000000     3.279000000     4.795000000
O    -5.763000000    -1.322000000    -3.692000000
H    -4.851000000    -1.044000000    -3.773000000
H    -5.867000000    -1.537000000    -2.765000000
O     2.506000000    -4.397000000     1.439000000
H     2.426000000    -3.789000000     0.704000000
H     1.995000000    -3.992000000     2.141000000
O     1.985000000     4.057000000     2.124000000
H     1.252000000     4.584000000     1.804000000
H     2.332000000     3.630000000     1.341000000
O    -3.852000000     2.946000000    -0.800000000
H    -3.498000000     3.433000000    -0.056000000
H    -3.737000000     3.533000000    -1.548000000
O    -1.039000000     0.880000000    -5.584000000
H    -0.278000000     0.683000000    -5.038000000
H    -1.772000000     0.459000000    -5.135000000
O     2.632000000    -2.339000000    -3.316000000
H     1.811000000    -2.741000000    -3.600000000
H     2.629000000    -2.437000000    -2.363000000
O     0.013000000     5.450000000     0.864000000
H    -0.864000000     5.183000000     1.140000000
H    -0.138000000     6.145000000     0.224000000
O    -7.737000000     2.879000000    -1.130000000
H    -6.918000000     2.526000000    -0.783000000
H    -8.008000000     2.245000000    -1.794000000
O     5.180000000    -4.237000000     2.408000000
H     4.461000000    -4.460000000     1.818000000
H     4.769000000    -4.163000000     3.269000000
O     1.553000000    -1.874000000     3.354000000
H     1.435000000    -2.013000000     4.294000000
H     2.404000000    -1.441000000     3.281000000
O    -6.034000000     1.807000000     1.439000000
H    -5.221000000     1.507000000     1.034000000
H    -5.806000000     1.949000000     2.358000000
O     7.836000000     1.207000000    -3.230000000
H     7.198000000     0.939000000    -2.569000000
H     7.733000000     2.156000000    -3.293000000
O    -4.697000000     2.180000000    -4.130000000
H    -4.095000000     1.571000000    -4.559000000
H    -4.126000000     2.807000000    -3.686000000
O     2.135000000     3.658000000     4.694000000
H     1.893000000     4.522000000     5.027000000
H     2.230000000     3.784000000     3.750000000
O     7.277000000     0.730000000     1.597000000
H     6.435000000     0.376000000     1.884000000
H     7.682000000     1.063000000     2.397000000
O    -3.165000000    -0.366000000    -4.167000000
H    -2.673000000    -1.185000000    -4.217000000
H    -3.119000000    -0.114000000    -3.245000000
O     3.779000000     0.400000000    -2.898000000
H     3.822000000     0.171000000    -1.970000000
H     3.746000000    -0.442000000    -3.352000000
O    -2.735000000    -1.104000000     4.162000000
H    -2.202000000    -1.286000000     3.388000000
H    -3.604000000    -1.439000000     3.937000000
O     1.494000000    -6.030000000    -1.375000000
H     2.315000000    -6.169000000    -1.847000000
H     1.750000000    -5.560000000    -0.581000000
O     5.064000000    -0.909000000     2.070000000
H     4.608000000    -0.632000000     1.275000000
H     5.301000000    -1.821000000     1.905000000
O     1.608000000     4.582000000    -2.272000000
H     1.835000000     4.933000000    -1.411000000
H     1.133000000     3.773000000    -2.083000000
O    -2.020000000    -2.654000000    -4.638000000
H    -2.411000000    -3.223000000    -5.302000000
H    -1.983000000    -3.196000000    -3.850000000
O    -0.566000000     2.618000000    -2.145000000
H    -0.521000000     2.384000000    -1.218000000
H    -1.411000000     2.278000000    -2.438000000
O     3.915000000     3.672000000     0.078000000
H     4.416000000     3.330000000    -0.662000000
H     3.801000000     4.602000000    -0.119000000
O     7.425000000    -0.652000000    -1.123000000
H     7.576000000    -0.524000000    -0.187000000
H     8.247000000    -0.389000000    -1.537000000
O     5.564000000     2.470000000    -1.866000000
H     4.933000000     1.794000000    -2.114000000
H     5.327000000     3.227000000    -2.402000000
O     5.676000000    -2.666000000    -1.138000000
H     6.169000000    -1.848000000    -1.196000000
H     4.852000000    -2.420000000    -0.716000000
O     1.329000000     1.711000000    -3.674000000
H     1.932000000     1.126000000    -3.216000000
H     0.870000000     2.177000000    -2.975000000
O    -5.464000000    -1.774000000     3.696000000
H    -5.819000000    -1.190000000     4.366000000
H    -5.985000000    -2.572000000     3.773000000
O    -0.916000000    -1.870000000     1.962000000
H    -0.098000000    -1.807000000     2.454000000
H    -0.749000000    -1.382000000     1.156000000
O    -2.794000000     4.225000000     1.184000000
H    -3.274000000     5.050000000     1.113000000
H    -2.793000000     4.028000000     2.121000000
O    -4.744000000    -0.837000000     1.241000000
H    -4.313000000    -1.618000000     0.893000000
H    -5.036000000    -1.095000000     2.116000000
O    -3.537000000    -3.224000000     0.471000000
H    -3.858000000    -3.985000000     0.955000000
H    -2.723000000    -3.523000000     0.066000000
O    -1.646000000    -4.625000000    -0.931000000
H    -2.447000000    -4.750000000    -1.440000000
H    -0.966000000    -4.474000000    -1.587000000
