158
-3063.29211
C    -1.307000000    -0.294000000     0.564000000
H    -2.304000000    -0.594000000     0.875000000
C    -0.949000000    -0.361000000    -0.781000000
H    -1.630000000    -0.744000000    -1.537000000
C     0.329000000    -0.032000000    -1.201000000
H     0.585000000    -0.067000000    -2.260000000
C     1.241000000     0.350000000    -0.255000000
H     2.230000000     0.599000000    -0.633000000
C     0.880000000     0.520000000     1.076000000
H     1.643000000     0.717000000     1.825000000
C    -0.415000000     0.212000000     1.518000000
C    -0.807000000     0.131000000     3.016000000
O    -1.974000000     0.059000000     3.364000000
O     0.078000000     0.295000000     3.883000000
O    -3.292000000    -4.912000000     2.047000000
H    -4.235000000    -4.781000000     2.150000000
H    -2.895000000    -4.179000000     2.516000000
O     1.001000000     1.988000000    -3.966000000
H     0.575000000     2.169000000    -4.804000000
H     0.767000000     2.734000000    -3.413000000
O    -0.935000000     2.947000000    -0.120000000
H    -1.685000000     2.975000000     0.475000000
H    -0.606000000     2.051000000    -0.047000000
O     4.562000000     1.716000000     3.243000000
H     3.766000000     1.432000000     3.692000000
H     4.931000000     0.911000000     2.879000000
O    -0.988000000    -4.692000000    -2.926000000
H    -1.056000000    -4.515000000    -1.988000000
H    -0.307000000    -4.094000000    -3.235000000
O     5.261000000    -1.388000000    -1.823000000
H     5.292000000    -0.509000000    -1.447000000
H     5.838000000    -1.344000000    -2.585000000
O     2.545000000    -0.691000000    -4.426000000
H     2.328000000     0.239000000    -4.360000000
H     3.385000000    -0.709000000    -4.885000000
O    -2.954000000    -2.363000000     2.929000000
H    -2.500000000    -1.543000000     3.123000000
H    -3.581000000    -2.133000000     2.243000000
O     4.747000000     4.471000000     1.370000000
H     5.013000000     3.555000000     1.295000000
H     4.067000000     4.468000000     2.045000000
O    -4.455000000     3.421000000     0.502000000
H    -5.330000000     3.040000000     0.569000000
H    -4.076000000     3.304000000     1.372000000
O    -1.379000000    -1.321000000    -4.795000000
H    -1.894000000    -1.055000000    -4.034000000
H    -1.424000000    -0.571000000    -5.389000000
O     3.680000000     1.697000000    -5.979000000
H     3.857000000     2.189000000    -5.177000000
H     4.186000000     2.149000000    -6.654000000
O     0.338000000     2.190000000     7.124000000
H     0.359000000     2.527000000     8.020000000
H    -0.478000000     1.691000000     7.075000000
O    -7.501000000    -0.615000000     0.458000000
H    -8.077000000    -0.740000000    -0.295000000
H    -6.692000000    -0.263000000     0.085000000
O     4.607000000     3.652000000     5.347000000
H     4.553000000     3.197000000     4.507000000
H     5.455000000     4.096000000     5.325000000
O    -3.841000000     2.101000000     7.395000000
H    -4.002000000     1.752000000     6.519000000
H    -2.946000000     2.439000000     7.359000000
O     0.878000000    -3.024000000    -0.458000000
H     1.759000000    -3.147000000    -0.811000000
H     0.561000000    -2.225000000    -0.878000000
O    -0.238000000     3.200000000     4.375000000
H     0.069000000     2.993000000     5.258000000
H     0.131000000     2.509000000     3.825000000
O     1.072000000    -0.926000000     7.412000000
H     0.822000000    -0.051000000     7.118000000
H     1.217000000    -1.419000000     6.605000000
O    -5.878000000    -1.580000000     5.512000000
H    -6.392000000    -1.570000000     4.705000000
H    -5.484000000    -0.709000000     5.556000000
O    -2.369000000     2.682000000     2.678000000
H    -2.350000000     1.847000000     3.145000000
H    -1.708000000     3.217000000     3.117000000
O    -4.658000000     0.719000000     1.847000000
H    -4.568000000    -0.204000000     1.609000000
H    -3.777000000     1.078000000     1.750000000
O    -2.693000000    -1.900000000     5.776000000
H    -3.634000000    -1.841000000     5.614000000
H    -2.302000000    -1.953000000     4.904000000
O     5.258000000    -0.527000000     1.853000000
H     5.125000000     0.079000000     1.124000000
H     4.377000000    -0.818000000     2.087000000
O    -4.061000000    -2.533000000    -2.063000000
H    -4.964000000    -2.580000000    -2.376000000
H    -3.804000000    -3.445000000    -1.934000000
O    -4.984000000     0.034000000    -5.607000000
H    -4.235000000     0.052000000    -5.012000000
H    -4.648000000     0.396000000    -6.427000000
O    -3.488000000    -0.171000000    -3.329000000
H    -3.656000000    -0.970000000    -2.829000000
H    -3.347000000     0.503000000    -2.664000000
O     2.465000000     4.703000000     2.969000000
H     2.067000000     5.569000000     3.062000000
H     2.382000000     4.307000000     3.836000000
O    -4.267000000     0.807000000     4.764000000
H    -3.430000000     0.622000000     4.338000000
H    -4.868000000     0.991000000     4.042000000
O    -1.576000000     0.704000000     6.132000000
H    -1.683000000    -0.184000000     6.473000000
H    -1.213000000     0.582000000     5.255000000
O    -4.515000000    -2.039000000     0.803000000
H    -4.909000000    -2.887000000     1.007000000
H    -4.340000000    -2.076000000    -0.137000000
O     3.550000000     2.397000000     7.755000000
H     2.872000000     2.180000000     7.116000000
H     4.253000000     2.786000000     7.235000000
O    -5.658000000     0.763000000    -1.188000000
H    -4.872000000     1.304000000    -1.264000000
H    -5.935000000     0.616000000    -2.093000000
O     3.910000000    -3.813000000    -1.845000000
H     4.327000000    -4.209000000    -1.080000000
H     4.227000000    -2.910000000    -1.851000000
O     0.473000000    -3.253000000    -5.086000000
H     1.304000000    -2.855000000    -4.826000000
H    -0.112000000    -2.510000000    -5.234000000
O     3.999000000     5.285000000    -1.086000000
H     4.073000000     4.340000000    -1.222000000
H     4.535000000     5.459000000    -0.313000000
O     0.014000000     4.764000000     1.550000000
H     0.954000000     4.647000000     1.687000000
H    -0.226000000     4.073000000     0.932000000
O    -1.514000000    -4.928000000    -0.190000000
H    -0.863000000    -5.075000000     0.496000000
H    -2.340000000    -4.822000000     0.282000000
O     3.589000000     2.567000000    -2.220000000
H     2.690000000     2.893000000    -2.179000000
H     3.956000000     2.973000000    -3.005000000
O     2.658000000     0.936000000     4.961000000
H     1.725000000     0.732000000     4.905000000
H     3.025000000     0.231000000     5.496000000
O     1.139000000    -1.954000000     4.916000000
H     0.710000000    -1.217000000     4.480000000
H     0.611000000    -2.715000000     4.674000000
O     2.847000000    -1.913000000     2.630000000
H     3.390000000    -2.506000000     3.150000000
H     2.142000000    -1.653000000     3.223000000
O     0.961000000     3.771000000    -1.966000000
H     1.071000000     4.713000000    -1.843000000
H     0.136000000     3.566000000    -1.526000000
O     1.026000000    -3.967000000     2.013000000
H     1.895000000    -3.624000000     2.222000000
H     0.748000000    -3.465000000     1.247000000
O    -3.273000000     2.358000000    -2.106000000
H    -2.748000000     2.491000000    -1.317000000
H    -3.302000000     3.219000000    -2.522000000
O     2.204000000     0.363000000    -8.047000000
H     2.351000000     0.801000000    -7.209000000
H     2.779000000    -0.402000000    -8.021000000
O    -1.872000000     1.076000000    -6.205000000
H    -2.226000000     1.619000000    -5.501000000
H    -2.464000000     1.226000000    -6.943000000
O     5.359000000     1.105000000    -0.572000000
H     4.837000000     1.707000000    -1.102000000
H     6.264000000     1.287000000    -0.824000000
