158
-3059.39136
C    -1.052000000     0.167000000     1.001000000
H    -1.863000000     0.103000000     1.722000000
C    -0.607000000    -1.057000000     0.460000000
H    -1.127000000    -1.965000000     0.755000000
C     0.406000000    -1.038000000    -0.472000000
H     0.740000000    -1.937000000    -0.926000000
C     0.929000000     0.157000000    -0.985000000
H     1.666000000     0.042000000    -1.775000000
C     0.585000000     1.345000000    -0.329000000
H     1.054000000     2.323000000    -0.409000000
C    -0.404000000     1.376000000     0.639000000
C    -0.894000000     2.677000000     1.257000000
O    -1.682000000     2.765000000     2.187000000
O    -0.506000000     3.678000000     0.787000000
O     3.357000000    -1.714000000    -2.941000000
H     2.796000000    -2.434000000    -3.229000000
H     3.570000000    -1.239000000    -3.744000000
O    -3.685000000     1.500000000    -0.805000000
H    -3.162000000     1.646000000    -0.017000000
H    -4.311000000     2.224000000    -0.814000000
O    -5.691000000    -0.977000000     2.214000000
H    -4.881000000    -0.478000000     2.309000000
H    -5.878000000    -1.300000000     3.095000000
O    -3.390000000     5.561000000     5.022000000
H    -3.355000000     4.612000000     5.143000000
H    -3.134000000     5.696000000     4.109000000
O    -1.437000000    -3.523000000    -3.176000000
H    -1.241000000    -2.593000000    -3.286000000
H    -2.382000000    -3.587000000    -3.317000000
O    -4.225000000    -5.497000000    -1.200000000
H    -3.787000000    -4.667000000    -1.388000000
H    -3.513000000    -6.131000000    -1.120000000
O     5.767000000    -4.664000000    -0.220000000
H     5.897000000    -5.083000000     0.631000000
H     5.177000000    -3.933000000    -0.039000000
O    -2.467000000    -1.801000000     3.904000000
H    -3.041000000    -1.598000000     4.643000000
H    -1.602000000    -1.503000000     4.184000000
O    -3.994000000    -1.131000000    -1.532000000
H    -3.818000000    -1.204000000    -2.470000000
H    -3.936000000    -0.193000000    -1.350000000
O    -3.710000000    -3.031000000     0.480000000
H    -3.639000000    -2.327000000    -0.165000000
H    -4.501000000    -2.821000000     0.977000000
O     0.432000000     1.115000000    -5.703000000
H     0.407000000     1.815000000    -5.051000000
H    -0.332000000     1.275000000    -6.256000000
O     4.286000000    -2.446000000    -0.379000000
H     4.725000000    -1.638000000    -0.115000000
H     3.793000000    -2.205000000    -1.164000000
O     6.926000000    -0.416000000    -3.086000000
H     7.059000000     0.513000000    -3.275000000
H     5.982000000    -0.501000000    -2.951000000
O    -2.542000000     4.620000000    -2.940000000
H    -2.845000000     3.715000000    -3.001000000
H    -2.529000000     4.806000000    -2.001000000
O     2.699000000    -6.679000000     1.366000000
H     2.252000000    -5.846000000     1.516000000
H     3.249000000    -6.799000000     2.140000000
O    -2.619000000     5.476000000     2.520000000
H    -1.959000000     6.024000000     2.096000000
H    -2.259000000     4.590000000     2.475000000
O    -3.285000000     2.746000000     5.235000000
H    -2.713000000     1.991000000     5.374000000
H    -3.654000000     2.930000000     6.098000000
O     2.462000000     2.742000000    -4.144000000
H     1.568000000     3.078000000    -4.207000000
H     2.887000000     3.311000000    -3.503000000
O    -0.596000000     7.511000000     4.531000000
H    -0.337000000     7.122000000     3.695000000
H    -1.172000000     6.858000000     4.930000000
O     1.346000000    -3.651000000    -3.728000000
H     0.443000000    -3.606000000    -3.415000000
H     1.286000000    -3.448000000    -4.662000000
O    -4.963000000     6.084000000     1.311000000
H    -4.957000000     7.039000000     1.242000000
H    -4.113000000     5.866000000     1.694000000
O     4.213000000     4.923000000     0.406000000
H     5.168000000     4.879000000     0.456000000
H     3.981000000     5.694000000     0.924000000
O    -2.563000000    -4.359000000     2.459000000
H    -3.092000000    -4.019000000     1.737000000
H    -2.420000000    -3.602000000     3.027000000
O     4.792000000     0.407000000     0.621000000
H     4.386000000     1.035000000     1.218000000
H     5.001000000     0.919000000    -0.160000000
O     0.453000000    -5.115000000     2.767000000
H     0.845000000    -4.269000000     2.981000000
H    -0.465000000    -4.915000000     2.585000000
O     2.536000000     5.311000000    -2.960000000
H     2.274000000     5.200000000    -2.046000000
H     3.381000000     5.759000000    -2.914000000
O     0.258000000    -0.865000000     4.054000000
H     0.510000000    -1.517000000     3.400000000
H     0.647000000    -1.181000000     4.869000000
O    -0.005000000     6.877000000     2.015000000
H     0.262000000     7.624000000     1.479000000
H     0.628000000     6.191000000     1.802000000
O     1.497000000     4.496000000     2.148000000
H     1.656000000     3.902000000     2.882000000
H     0.591000000     4.322000000     1.892000000
O    -3.899000000     1.425000000     2.311000000
H    -4.566000000     1.977000000     2.718000000
H    -3.070000000     1.858000000     2.518000000
O    -0.570000000     1.966000000     4.561000000
H    -0.777000000     1.040000000     4.433000000
H    -0.947000000     2.404000000     3.798000000
O     2.957000000     0.084000000    -4.922000000
H     3.141000000     0.815000000    -4.331000000
H     2.086000000     0.273000000    -5.271000000
O     0.438000000    -6.926000000    -2.844000000
H     0.767000000    -7.515000000    -2.164000000
H     0.782000000    -6.066000000    -2.603000000
O     1.210000000    -2.753000000    -6.258000000
H     0.610000000    -3.364000000    -6.684000000
H     1.892000000    -2.593000000    -6.910000000
O    -0.148000000     2.859000000    -3.761000000
H    -0.632000000     2.185000000    -3.284000000
H    -0.625000000     3.669000000    -3.581000000
O     0.476000000     7.683000000    -1.397000000
H     0.841000000     6.857000000    -1.081000000
H     0.795000000     7.757000000    -2.297000000
O     1.415000000     5.239000000    -0.488000000
H     0.668000000     4.702000000    -0.225000000
H     2.146000000     4.902000000     0.029000000
O     1.895000000    -2.750000000     2.359000000
H     1.722000000    -2.348000000     1.507000000
H     2.650000000    -2.271000000     2.701000000
O    -5.042000000     4.088000000    -0.613000000
H    -5.102000000     4.686000000     0.133000000
H    -5.182000000     4.646000000    -1.378000000
O    -5.738000000     3.215000000     3.838000000
H    -6.473000000     3.257000000     4.449000000
H    -4.966000000     3.131000000     4.397000000
O    -1.457000000     0.956000000    -2.382000000
H    -0.725000000     0.440000000    -2.043000000
H    -2.068000000     1.015000000    -1.648000000
O    -2.287000000    -6.921000000    -0.390000000
H    -2.171000000    -7.775000000     0.024000000
H    -1.425000000    -6.508000000    -0.334000000
O    -1.632000000     5.875000000    -0.786000000
H    -1.165000000     6.654000000    -1.089000000
H    -0.997000000     5.414000000    -0.237000000
O     1.877000000     3.108000000     4.326000000
H     1.120000000     2.527000000     4.258000000
H     1.616000000     3.769000000     4.968000000
O     3.820000000     2.462000000     2.058000000
H     3.400000000     2.537000000     2.914000000
H     3.611000000     3.285000000     1.615000000
O     3.158000000    -5.477000000    -2.957000000
H     3.476000000    -5.137000000    -2.120000000
H     2.433000000    -4.898000000    -3.190000000
O    -0.407000000    -1.259000000    -4.463000000
H     0.157000000    -1.745000000    -5.064000000
H    -0.119000000    -0.350000000    -4.547000000
O    -6.876000000     2.453000000     1.104000000
H    -7.047000000     2.976000000     1.887000000
H    -6.001000000     2.090000000     1.245000000
