158
-3029.76161
C    -0.508000000    -0.577000000     1.231000000
H    -0.947000000    -1.048000000     2.107000000
C    -0.663000000    -1.099000000    -0.024000000
H    -1.133000000    -2.073000000    -0.141000000
C    -0.165000000    -0.439000000    -1.128000000
H    -0.297000000    -0.805000000    -2.239000000
C     0.527000000     0.722000000    -0.926000000
H     0.873000000     1.221000000    -1.828000000
C     0.805000000     1.230000000     0.354000000
H     1.374000000     2.151000000     0.257000000
C     0.224000000     0.614000000     1.446000000
C     0.221000000     1.219000000     2.810000000
O    -0.371000000     0.764000000     3.759000000
O     0.593000000     2.365000000     2.862000000
O    -1.807000000     2.624000000    -5.893000000
H    -2.644000000     2.160000000    -5.881000000
H    -1.200000000     2.034000000    -5.447000000
O     2.203000000     5.418000000     1.766000000
H     1.551000000     5.016000000     1.193000000
H     2.609000000     6.097000000     1.228000000
O    -1.123000000    -1.708000000    -6.588000000
H    -0.213000000    -1.675000000    -6.883000000
H    -1.071000000    -2.021000000    -5.685000000
O    -2.925000000     0.511000000     4.250000000
H    -2.925000000     0.131000000     5.128000000
H    -1.999000000     0.646000000     4.047000000
O    -2.779000000    -0.620000000     6.833000000
H    -2.104000000     0.057000000     6.894000000
H    -2.290000000    -1.439000000     6.749000000
O     3.643000000     2.436000000    -2.693000000
H     4.309000000     2.793000000    -2.106000000
H     2.972000000     3.118000000    -2.738000000
O     1.726000000     0.459000000     7.360000000
H     2.070000000     1.351000000     7.408000000
H     2.468000000    -0.069000000     7.065000000
O    -1.111000000     3.308000000    -2.150000000
H    -1.617000000     2.626000000    -2.593000000
H    -1.287000000     4.102000000    -2.656000000
O     0.873000000    -3.391000000    -2.220000000
H     1.475000000    -2.846000000    -1.714000000
H     0.497000000    -3.993000000    -1.578000000
O     4.196000000    -2.076000000     3.736000000
H     4.614000000    -1.216000000     3.764000000
H     3.292000000    -1.912000000     4.005000000
O    -3.016000000     1.263000000    -2.591000000
H    -3.838000000     1.107000000    -3.057000000
H    -3.067000000     0.699000000    -1.820000000
O    -3.343000000     3.785000000     0.334000000
H    -2.877000000     3.606000000     1.151000000
H    -2.965000000     3.172000000    -0.297000000
O     3.965000000    -4.560000000    -1.906000000
H     3.139000000    -4.621000000    -1.424000000
H     4.638000000    -4.544000000    -1.226000000
O    -1.527000000     4.328000000     7.056000000
H    -0.683000000     4.646000000     6.735000000
H    -1.639000000     3.476000000     6.634000000
O     2.939000000     3.137000000     3.533000000
H     2.219000000     2.631000000     3.156000000
H     2.798000000     4.029000000     3.215000000
O     1.691000000     0.695000000    -4.699000000
H     1.754000000     0.132000000    -5.471000000
H     0.754000000     0.729000000    -4.504000000
O    -5.805000000     1.658000000     3.642000000
H    -4.856000000     1.571000000     3.734000000
H    -6.149000000     0.805000000     3.906000000
O     1.696000000    -5.043000000     0.024000000
H     2.229000000    -4.386000000     0.471000000
H     1.275000000    -5.532000000     0.730000000
O     3.934000000    -0.135000000    -3.450000000
H     4.115000000     0.658000000    -2.946000000
H     3.120000000     0.057000000    -3.915000000
O    -4.890000000    -2.682000000     4.071000000
H    -4.210000000    -3.308000000     4.321000000
H    -5.571000000    -2.791000000     4.735000000
O    -0.228000000     6.257000000     3.389000000
H    -0.031000000     5.584000000     4.041000000
H     0.472000000     6.174000000     2.741000000
O    -1.116000000     0.313000000    -4.310000000
H    -1.711000000     0.614000000    -3.624000000
H    -1.251000000    -0.634000000    -4.346000000
O     5.487000000     3.431000000     2.513000000
H     4.608000000     3.379000000     2.888000000
H     5.971000000     2.723000000     2.939000000
O    -0.822000000     1.383000000     6.315000000
H    -0.047000000     1.095000000     6.796000000
H    -0.593000000     1.255000000     5.394000000
O    -0.289000000     5.949000000    -2.582000000
H     0.228000000     5.180000000    -2.344000000
H    -0.168000000     6.555000000    -1.850000000
O     2.097000000    -4.225000000    -4.517000000
H     1.711000000    -3.801000000    -3.751000000
H     3.040000000    -4.200000000    -4.353000000
O     3.149000000     2.588000000    -6.643000000
H     2.806000000     2.483000000    -5.755000000
H     3.738000000     3.340000000    -6.584000000
O    -3.556000000     0.092000000    -0.191000000
H    -3.640000000    -0.289000000     0.683000000
H    -2.614000000     0.098000000    -0.361000000
O     3.139000000     3.098000000     6.274000000
H     3.806000000     3.636000000     6.700000000
H     3.437000000     3.020000000     5.368000000
O    -3.691000000    -2.858000000    -0.169000000
H    -3.646000000    -2.272000000     0.586000000
H    -3.570000000    -3.733000000     0.199000000
O     5.108000000     0.926000000     4.511000000
H     4.153000000     0.961000000     4.547000000
H     5.381000000     0.901000000     5.429000000
O    -2.457000000     4.086000000     3.374000000
H    -2.044000000     3.328000000     3.789000000
H    -1.835000000     4.801000000     3.508000000
O     0.913000000    -3.707000000     4.942000000
H     1.580000000    -3.927000000     5.591000000
H     0.690000000    -4.543000000     4.534000000
O     1.788000000    -1.080000000     4.413000000
H     1.375000000    -1.940000000     4.492000000
H     1.063000000    -0.459000000     4.486000000
O    -3.580000000    -1.193000000     2.129000000
H    -3.301000000    -0.597000000     2.824000000
H    -4.305000000    -1.686000000     2.514000000
O    -2.939000000    -4.734000000     4.719000000
H    -2.562000000    -3.960000000     5.137000000
H    -2.227000000    -5.374000000     4.714000000
O    -0.094000000     4.147000000     0.950000000
H    -0.550000000     3.650000000     0.271000000
H     0.056000000     3.513000000     1.651000000
O    -1.414000000    -2.912000000     6.207000000
H    -1.097000000    -3.134000000     7.082000000
H    -0.749000000    -3.263000000     5.615000000
O    -3.333000000    -3.274000000    -2.993000000
H    -3.652000000    -3.088000000    -2.110000000
H    -4.114000000    -3.230000000    -3.544000000
O     1.507000000    -1.604000000    -7.170000000
H     1.727000000    -2.535000000    -7.137000000
H     1.798000000    -1.320000000    -8.037000000
O     2.706000000    -1.484000000    -1.146000000
H     3.216000000    -1.519000000    -0.336000000
H     2.029000000    -0.829000000    -0.974000000
O    -1.049000000    -2.471000000    -4.146000000
H    -0.403000000    -2.775000000    -3.509000000
H    -1.894000000    -2.687000000    -3.753000000
O    -3.574000000    -4.922000000     1.319000000
H    -3.938000000    -5.792000000     1.160000000
H    -3.746000000    -4.757000000     2.247000000
O     4.643000000    -2.645000000    -3.592000000
H     4.108000000    -1.898000000    -3.325000000
H     4.392000000    -3.347000000    -2.992000000
O     2.207000000     4.648000000    -3.545000000
H     2.956000000     5.243000000    -3.576000000
H     1.814000000     4.712000000    -4.415000000
O    -0.322000000    -6.026000000     1.329000000
H    -0.224000000    -6.326000000     2.232000000
H    -1.183000000    -5.608000000     1.308000000
O    -2.254000000    -5.881000000    -3.355000000
H    -2.403000000    -4.966000000    -3.115000000
H    -1.651000000    -6.208000000    -2.688000000
O     0.401000000     4.041000000     4.977000000
H     1.165000000     3.921000000     5.540000000
H     0.376000000     3.253000000     4.435000000
