158
-3049.88238
C    -0.821000000    -0.267000000     1.149000000
H    -1.456000000    -0.526000000     1.993000000
C    -0.535000000    -1.236000000     0.152000000
H    -0.936000000    -2.247000000     0.133000000
C     0.239000000    -0.790000000    -0.913000000
H     0.481000000    -1.590000000    -1.623000000
C     0.684000000     0.477000000    -1.019000000
H     1.244000000     0.827000000    -1.883000000
C     0.378000000     1.454000000     0.010000000
H     0.756000000     2.463000000    -0.136000000
C    -0.322000000     1.069000000     1.150000000
C    -0.567000000     2.074000000     2.242000000
O    -1.436000000     1.790000000     3.034000000
O     0.071000000     3.102000000     2.458000000
O     2.756000000    -0.482000000     1.080000000
H     3.685000000    -0.472000000     0.848000000
H     2.358000000     0.171000000     0.506000000
O    -3.168000000     6.613000000     4.479000000
H    -2.719000000     5.851000000     4.845000000
H    -2.799000000     6.710000000     3.601000000
O    -5.134000000    -1.308000000     1.387000000
H    -4.369000000    -1.758000000     1.743000000
H    -5.621000000    -1.017000000     2.158000000
O    -4.841000000    -2.584000000     5.137000000
H    -4.287000000    -2.566000000     4.356000000
H    -5.677000000    -2.934000000     4.830000000
O     2.152000000     6.633000000     1.870000000
H     1.989000000     6.649000000     2.813000000
H     1.414000000     6.142000000     1.508000000
O    -1.803000000     2.190000000     6.553000000
H    -1.836000000     2.212000000     7.510000000
H    -2.626000000     1.774000000     6.296000000
O    -3.175000000    -5.743000000    -0.420000000
H    -2.675000000    -5.425000000     0.332000000
H    -2.531000000    -5.808000000    -1.125000000
O     0.984000000    -0.674000000    -6.525000000
H     0.267000000    -0.753000000    -7.155000000
H     0.880000000    -1.430000000    -5.948000000
O    -4.194000000     0.146000000    -1.023000000
H    -4.603000000     0.998000000    -0.869000000
H    -4.396000000    -0.362000000    -0.237000000
O    -3.260000000    -2.417000000     3.123000000
H    -2.896000000    -1.633000000     3.534000000
H    -2.534000000    -3.041000000     3.110000000
O    -4.544000000    -3.447000000    -2.742000000
H    -4.667000000    -3.630000000    -1.810000000
H    -4.266000000    -2.532000000    -2.772000000
O    -3.445000000     4.142000000     1.237000000
H    -3.591000000     3.670000000     2.057000000
H    -2.619000000     4.606000000     1.372000000
O    -1.741000000     4.323000000     4.857000000
H    -1.640000000     3.764000000     4.086000000
H    -1.645000000     3.726000000     5.599000000
O     0.801000000     5.458000000    -0.953000000
H     1.649000000     5.014000000    -0.952000000
H     0.291000000     4.997000000    -1.619000000
O     3.926000000    -5.965000000    -2.802000000
H     4.164000000    -6.035000000    -3.726000000
H     3.772000000    -5.030000000    -2.664000000
O    -6.049000000     3.718000000     4.592000000
H    -6.538000000     3.204000000     3.949000000
H    -5.137000000     3.459000000     4.462000000
O     5.184000000     2.467000000     1.937000000
H     5.154000000     1.546000000     1.677000000
H     4.286000000     2.670000000     2.199000000
O     4.481000000    -0.518000000    -2.764000000
H     5.438000000    -0.532000000    -2.732000000
H     4.267000000     0.315000000    -3.184000000
O     2.543000000    -3.131000000     1.350000000
H     2.352000000    -2.204000000     1.211000000
H     2.397000000    -3.268000000     2.286000000
O    -2.187000000    -5.222000000     2.644000000
H    -2.906000000    -5.165000000     3.274000000
H    -1.483000000    -4.706000000     3.037000000
O     3.252000000     4.497000000    -0.948000000
H     3.382000000     3.549000000    -0.953000000
H     3.648000000     4.789000000    -0.127000000
O     3.537000000     1.974000000    -3.868000000
H     3.677000000     2.760000000    -4.396000000
H     2.699000000     1.626000000    -4.174000000
O     2.467000000    -3.152000000     4.057000000
H     2.425000000    -3.427000000     4.973000000
H     2.264000000    -2.217000000     4.079000000
O     1.199000000     5.501000000     4.541000000
H     0.537000000     4.857000000     4.790000000
H     2.018000000     5.151000000     4.894000000
O     2.341000000     5.221000000    -3.553000000
H     1.555000000     4.682000000    -3.643000000
H     2.741000000     4.927000000    -2.734000000
O    -2.242000000    -0.503000000     4.848000000
H    -1.605000000    -0.764000000     5.513000000
H    -1.960000000     0.370000000     4.576000000
O     0.631000000     1.519000000     5.087000000
H     0.424000000     1.949000000     4.258000000
H    -0.132000000     1.686000000     5.640000000
O     2.529000000    -3.734000000    -5.752000000
H     1.828000000    -3.236000000    -5.332000000
H     3.325000000    -3.239000000    -5.558000000
O    -3.883000000     2.452000000    -3.284000000
H    -4.554000000     2.260000000    -2.628000000
H    -3.066000000     2.491000000    -2.786000000
O     5.808000000    -3.223000000    -0.196000000
H     6.758000000    -3.334000000    -0.157000000
H     5.471000000    -3.799000000     0.491000000
O    -0.105000000     4.041000000    -3.215000000
H    -0.401000000     3.207000000    -2.852000000
H    -0.599000000     4.137000000    -4.029000000
O    -0.758000000    -5.593000000    -2.065000000
H    -1.199000000    -5.113000000    -2.766000000
H     0.159000000    -5.328000000    -2.133000000
O    -2.619000000     7.543000000     2.032000000
H    -1.991000000     6.941000000     1.633000000
H    -2.711000000     8.251000000     1.395000000
O     2.924000000     3.163000000     2.984000000
H     2.089000000     3.161000000     2.516000000
H     2.684000000     3.055000000     3.904000000
O     1.958000000    -0.413000000     3.733000000
H     1.236000000     0.115000000     4.075000000
H     2.122000000    -0.058000000     2.860000000
O    -0.953000000     5.228000000     1.247000000
H    -0.605000000     5.370000000     0.367000000
H    -0.414000000     4.525000000     1.608000000
O    -4.033000000     0.564000000     6.350000000
H    -3.581000000    -0.024000000     5.745000000
H    -4.962000000     0.423000000     6.171000000
O    -2.320000000     2.694000000    -1.036000000
H    -2.753000000     3.223000000    -0.366000000
H    -2.202000000     1.837000000    -0.626000000
O     0.112000000    -5.925000000     0.660000000
H    -0.208000000    -5.412000000     1.402000000
H     0.402000000    -5.272000000     0.024000000
O    -0.768000000    -3.093000000     3.823000000
H    -0.007000000    -2.566000000     3.583000000
H    -0.586000000    -3.385000000     4.717000000
O    -2.021000000    -4.213000000    -3.997000000
H    -2.233000000    -4.645000000    -4.824000000
H    -2.871000000    -4.032000000    -3.596000000
O     1.039000000     0.963000000    -4.402000000
H     1.059000000     0.271000000    -5.064000000
H     0.365000000     1.568000000    -4.710000000
O     1.652000000    -4.009000000    -1.368000000
H     2.384000000    -3.692000000    -1.897000000
H     1.863000000    -3.733000000    -0.476000000
O     3.665000000     1.616000000    -0.926000000
H     4.608000000     1.634000000    -0.763000000
H     3.574000000     1.151000000    -1.758000000
O     4.125000000    -3.132000000    -2.246000000
H     4.740000000    -3.177000000    -1.514000000
H     4.152000000    -2.217000000    -2.526000000
O    -3.745000000    -0.864000000    -3.565000000
H    -2.830000000    -0.604000000    -3.669000000
H    -3.923000000    -0.749000000    -2.632000000
O     0.139000000    -2.785000000    -4.918000000
H    -0.791000000    -2.915000000    -5.102000000
H     0.331000000    -3.402000000    -4.211000000
O    -3.868000000     2.428000000     3.633000000
H    -3.030000000     2.037000000     3.386000000
H    -4.500000000     1.714000000     3.550000000
