158
-3029.88557
C    -0.386000000    -0.065000000     1.477000000
H    -0.681000000    -0.223000000     2.511000000
C    -0.631000000    -1.101000000     0.567000000
H    -1.119000000    -2.027000000     0.862000000
C    -0.311000000    -0.881000000    -0.768000000
H    -0.544000000    -1.626000000    -1.509000000
C     0.297000000     0.288000000    -1.221000000
H     0.561000000     0.359000000    -2.273000000
C     0.682000000     1.249000000    -0.275000000
H     1.275000000     2.118000000    -0.547000000
C     0.294000000     1.153000000     1.065000000
C     0.649000000     2.249000000     1.983000000
O     0.779000000     1.966000000     3.159000000
O     0.824000000     3.372000000     1.670000000
O     4.613000000     1.888000000     0.639000000
H     4.790000000     2.419000000     1.415000000
H     4.941000000     2.415000000    -0.091000000
O     2.896000000     7.026000000    -0.211000000
H     2.103000000     6.493000000    -0.156000000
H     2.653000000     7.859000000     0.192000000
O    -0.732000000    -0.206000000    -6.261000000
H    -0.183000000    -0.351000000    -7.032000000
H    -0.859000000    -1.078000000    -5.889000000
O     5.290000000     3.811000000     5.077000000
H     4.478000000     3.318000000     5.196000000
H     5.899000000     3.178000000     4.696000000
O    -4.234000000     0.706000000     3.928000000
H    -4.081000000    -0.196000000     4.209000000
H    -3.357000000     1.077000000     3.825000000
O    -3.549000000    -1.531000000     4.928000000
H    -3.775000000    -1.934000000     5.766000000
H    -2.607000000    -1.371000000     4.986000000
O     3.537000000     0.572000000    -2.021000000
H     3.147000000     0.664000000    -1.151000000
H     3.325000000     1.392000000    -2.466000000
O    -0.276000000     4.892000000    -3.033000000
H    -1.115000000     4.433000000    -2.985000000
H    -0.014000000     4.816000000    -3.951000000
O     0.632000000    -4.547000000    -2.324000000
H     1.199000000    -4.001000000    -1.779000000
H    -0.089000000    -4.795000000    -1.746000000
O     5.217000000    -0.209000000     3.657000000
H     5.188000000    -1.076000000     4.061000000
H     4.369000000     0.182000000     3.865000000
O    -4.928000000    -3.015000000    -4.760000000
H    -5.282000000    -3.869000000    -4.510000000
H    -4.635000000    -3.132000000    -5.664000000
O    -2.061000000     4.014000000     0.541000000
H    -1.228000000     3.790000000     0.956000000
H    -2.262000000     3.261000000    -0.015000000
O     2.624000000    -5.524000000     0.031000000
H     3.453000000    -5.066000000    -0.106000000
H     2.030000000    -4.850000000     0.361000000
O     3.002000000     5.061000000     1.975000000
H     2.289000000     4.447000000     1.800000000
H     2.728000000     5.874000000     1.550000000
O    -1.560000000    -7.147000000     1.250000000
H    -0.792000000    -6.584000000     1.351000000
H    -1.270000000    -7.845000000     0.662000000
O     1.435000000     1.792000000    -5.923000000
H     1.416000000     0.961000000    -6.398000000
H     0.582000000     1.840000000    -5.490000000
O    -5.417000000     1.219000000     1.649000000
H    -5.016000000     1.097000000     2.510000000
H    -4.706000000     1.060000000     1.029000000
O    -1.244000000    -5.164000000    -0.486000000
H    -1.484000000    -5.844000000     0.143000000
H    -1.764000000    -4.403000000    -0.226000000
O     1.473000000    -4.286000000     2.151000000
H     1.716000000    -5.189000000     2.355000000
H     0.516000000    -4.290000000     2.151000000
O     3.887000000    -2.104000000    -2.719000000
H     3.874000000    -1.183000000    -2.461000000
H     3.181000000    -2.506000000    -2.212000000
O    -5.017000000     0.131000000    -0.947000000
H    -5.816000000    -0.065000000    -0.458000000
H    -5.219000000     0.935000000    -1.424000000
O    -1.830000000     7.414000000     2.537000000
H    -1.568000000     6.514000000     2.733000000
H    -1.263000000     7.954000000     3.087000000
O    -1.373000000     2.276000000    -4.993000000
H    -2.317000000     2.225000000    -4.846000000
H    -1.152000000     1.451000000    -5.424000000
O     5.696000000     4.704000000     2.260000000
H     4.741000000     4.724000000     2.207000000
H     5.905000000     5.246000000     3.021000000
O    -1.803000000     1.891000000     4.153000000
H    -1.761000000     2.015000000     5.102000000
H    -0.895000000     1.967000000     3.861000000
O     1.116000000    -5.264000000    -4.838000000
H     1.075000000    -4.895000000    -3.956000000
H     1.455000000    -6.150000000    -4.711000000
O    -2.184000000    -6.704000000    -3.084000000
H    -1.419000000    -6.963000000    -3.597000000
H    -1.952000000    -5.851000000    -2.720000000
O    -2.576000000     1.473000000    -0.480000000
H    -3.281000000     1.074000000    -0.990000000
H    -1.808000000     0.935000000    -0.672000000
O     2.314000000     4.469000000     6.944000000
H     2.796000000     3.654000000     7.085000000
H     2.097000000     4.461000000     6.012000000
O    -3.822000000    -2.383000000    -0.377000000
H    -3.976000000    -1.487000000    -0.674000000
H    -3.583000000    -2.292000000     0.545000000
O    -2.578000000     6.687000000     0.222000000
H    -2.255000000     5.809000000     0.427000000
H    -2.525000000     7.161000000     1.052000000
O     2.185000000     3.906000000     4.336000000
H     1.589000000     3.277000000     3.930000000
H     2.593000000     4.359000000     3.599000000
O    -3.224000000     4.201000000     4.683000000
H    -3.129000000     3.252000000     4.766000000
H    -2.427000000     4.484000000     4.236000000
O     1.424000000    -2.109000000     3.962000000
H     2.136000000    -2.148000000     4.601000000
H     1.635000000    -2.792000000     3.326000000
O     2.662000000     0.410000000     4.270000000
H     2.076000000    -0.343000000     4.187000000
H     2.145000000     1.151000000     3.954000000
O     0.634000000     5.565000000    -0.024000000
H     0.043000000     5.458000000    -0.769000000
H     0.662000000     4.700000000     0.386000000
O     2.908000000     1.419000000     6.895000000
H     3.774000000     1.061000000     7.089000000
H     2.686000000     1.057000000     6.038000000
O    -0.974000000    -1.358000000     5.093000000
H    -1.003000000    -1.925000000     5.864000000
H    -0.085000000    -1.460000000     4.754000000
O     1.271000000    -7.479000000    -1.920000000
H     1.711000000    -7.711000000    -2.738000000
H     1.602000000    -6.605000000    -1.711000000
O    -2.738000000    -3.552000000    -2.789000000
H    -3.070000000    -3.455000000    -1.897000000
H    -3.494000000    -3.374000000    -3.347000000
O     1.960000000    -2.595000000    -0.660000000
H     2.184000000    -2.621000000     0.270000000
H     1.398000000    -1.826000000    -0.750000000
O    -1.661000000    -2.558000000    -4.961000000
H    -2.141000000    -3.171000000    -5.518000000
H    -1.616000000    -2.993000000    -4.110000000
O    -3.424000000    -2.786000000     2.291000000
H    -4.374000000    -2.891000000     2.232000000
H    -3.264000000    -2.558000000     3.206000000
O     4.136000000    -2.319000000    -5.682000000
H     3.718000000    -2.247000000    -4.824000000
H     4.594000000    -3.159000000    -5.655000000
O     3.150000000     3.082000000    -3.208000000
H     3.107000000     3.923000000    -2.753000000
H     2.829000000     3.271000000    -4.090000000
O    -1.300000000    -4.632000000     2.532000000
H    -1.568000000    -5.247000000     3.215000000
H    -2.100000000    -4.154000000     2.313000000
O    -3.661000000    -0.296000000    -4.694000000
H    -2.746000000    -0.566000000    -4.618000000
H    -4.144000000    -1.115000000    -4.804000000
O    -0.827000000     4.932000000     3.573000000
H    -0.688000000     5.149000000     4.495000000
H    -0.027000000     4.478000000     3.310000000
