158
-3020.22095
C    -0.261000000    -0.893000000     1.179000000
H    -0.410000000    -1.556000000     2.028000000
C    -0.049000000    -1.284000000    -0.149000000
H    -0.105000000    -2.320000000    -0.474000000
C     0.163000000    -0.372000000    -1.194000000
H     0.398000000    -0.624000000    -2.244000000
C     0.202000000     0.959000000    -0.846000000
H     0.462000000     1.711000000    -1.586000000
C    -0.042000000     1.381000000     0.487000000
H    -0.079000000     2.445000000     0.705000000
C    -0.273000000     0.494000000     1.466000000
C    -0.629000000     1.061000000     2.828000000
O    -0.856000000     0.330000000     3.759000000
O    -0.593000000     2.254000000     3.042000000
O    -0.987000000    -5.549000000    -5.088000000
H    -0.378000000    -6.068000000    -5.613000000
H    -0.427000000    -5.063000000    -4.483000000
O    -3.851000000    -2.735000000     5.096000000
H    -2.978000000    -2.380000000     4.931000000
H    -3.690000000    -3.572000000     5.532000000
O     2.629000000     4.543000000     5.032000000
H     2.241000000     5.340000000     5.393000000
H     3.560000000     4.747000000     4.944000000
O    -3.486000000    -1.503000000     2.117000000
H    -4.354000000    -1.900000000     2.191000000
H    -2.946000000    -1.991000000     2.738000000
O    -2.178000000    -5.432000000     4.300000000
H    -1.480000000    -5.212000000     3.683000000
H    -1.850000000    -5.136000000     5.149000000
O     3.388000000    -0.866000000    -7.344000000
H     3.012000000    -1.246000000    -6.549000000
H     3.051000000     0.030000000    -7.363000000
O    -1.195000000     4.070000000    -4.981000000
H    -2.003000000     3.708000000    -5.343000000
H    -0.593000000     3.327000000    -4.947000000
O     1.352000000     2.938000000     7.579000000
H     0.948000000     2.383000000     6.911000000
H     2.220000000     2.557000000     7.713000000
O     3.373000000    -1.275000000    -2.383000000
H     4.030000000    -0.921000000    -1.784000000
H     2.961000000    -1.986000000    -1.893000000
O    -1.844000000     5.141000000     0.548000000
H    -1.036000000     4.860000000     0.118000000
H    -1.610000000     5.957000000     0.989000000
O    -0.214000000     7.546000000     1.107000000
H     0.357000000     6.867000000     0.748000000
H     0.344000000     8.321000000     1.170000000
O    -1.011000000     2.891000000     5.538000000
H    -1.004000000     2.264000000     4.814000000
H    -1.049000000     3.747000000     5.113000000
O    -2.364000000     2.654000000     8.172000000
H    -1.925000000     2.611000000     7.322000000
H    -3.260000000     2.919000000     7.965000000
O     2.742000000     4.870000000     0.739000000
H     3.459000000     5.417000000     0.417000000
H     3.014000000     3.975000000     0.538000000
O    -5.575000000     2.001000000     5.187000000
H    -5.725000000     2.106000000     6.127000000
H    -4.729000000     1.557000000     5.127000000
O     3.911000000    -5.442000000    -3.614000000
H     4.302000000    -4.711000000    -3.136000000
H     4.568000000    -6.137000000    -3.567000000
O    -0.342000000    -4.312000000     2.155000000
H     0.069000000    -3.452000000     2.240000000
H     0.336000000    -4.929000000     2.430000000
O     0.719000000     2.327000000    -4.886000000
H     0.946000000     2.789000000    -4.080000000
H     1.115000000     1.461000000    -4.786000000
O    -1.017000000    -0.172000000     7.632000000
H    -0.843000000     0.251000000     8.473000000
H    -1.969000000    -0.140000000     7.540000000
O     1.173000000    -2.638000000     4.471000000
H     1.505000000    -3.355000000     5.013000000
H     1.318000000    -1.853000000     4.999000000
O    -0.563000000     4.788000000     3.574000000
H    -0.643000000     3.865000000     3.332000000
H     0.330000000     5.025000000     3.324000000
O    -3.684000000     1.097000000    -3.641000000
H    -3.062000000     1.589000000    -3.105000000
H    -3.448000000     1.314000000    -4.542000000
O     3.846000000     0.569000000     5.496000000
H     2.897000000     0.451000000     5.462000000
H     3.998000000     1.417000000     5.078000000
O     3.431000000     2.438000000    -0.408000000
H     4.332000000     2.189000000    -0.618000000
H     2.991000000     1.608000000    -0.221000000
O    -1.499000000    -2.181000000     4.435000000
H    -0.683000000    -2.568000000     4.753000000
H    -1.282000000    -1.263000000     4.274000000
O     1.175000000     0.456000000     5.746000000
H     0.495000000     0.832000000     5.186000000
H     0.699000000     0.107000000     6.499000000
O     1.151000000    -2.875000000    -6.456000000
H     0.306000000    -2.695000000    -6.043000000
H     1.091000000    -2.458000000    -7.315000000
O     4.002000000     1.485000000    -4.755000000
H     3.384000000     2.201000000    -4.903000000
H     3.449000000     0.715000000    -4.621000000
O     0.399000000     4.728000000    -0.620000000
H     0.631000000     4.424000000    -1.497000000
H     1.219000000     4.684000000    -0.127000000
O     2.509000000    -3.589000000    -0.893000000
H     2.356000000    -4.517000000    -1.069000000
H     2.947000000    -3.575000000    -0.042000000
O     0.083000000     0.921000000    -7.649000000
H    -0.855000000     0.771000000    -7.769000000
H     0.151000000     1.336000000    -6.790000000
O     3.715000000    -3.868000000    -5.824000000
H     3.606000000    -4.503000000    -5.116000000
H     2.827000000    -3.572000000    -6.019000000
O    -2.159000000     2.619000000    -1.920000000
H    -1.366000000     2.896000000    -1.461000000
H    -2.463000000     1.854000000    -1.433000000
O     2.166000000     2.741000000     2.803000000
H     1.242000000     2.493000000     2.782000000
H     2.219000000     3.415000000     3.480000000
O     4.281000000     0.645000000     1.740000000
H     3.697000000     1.235000000     2.216000000
H     5.148000000     0.820000000     2.105000000
O    -3.425000000     2.659000000     1.663000000
H    -3.013000000     3.197000000     0.988000000
H    -2.696000000     2.352000000     2.203000000
O    -3.764000000    -0.476000000     7.338000000
H    -4.360000000    -1.225000000     7.340000000
H    -3.780000000    -0.159000000     6.435000000
O    -3.037000000    -0.647000000    -0.689000000
H    -2.099000000    -0.703000000    -0.505000000
H    -3.450000000    -0.633000000     0.174000000
O     1.622000000     3.981000000    -2.820000000
H     2.579000000     4.012000000    -2.846000000
H     1.343000000     4.677000000    -3.414000000
O    -3.499000000    -3.511000000    -4.284000000
H    -3.118000000    -4.343000000    -4.004000000
H    -4.235000000    -3.373000000    -3.688000000
O     3.977000000    -3.626000000     3.406000000
H     3.050000000    -3.597000000     3.169000000
H     3.978000000    -3.716000000     4.359000000
O    -1.246000000    -1.909000000    -5.118000000
H    -1.850000000    -2.101000000    -4.400000000
H    -1.804000000    -1.864000000    -5.895000000
O    -0.606000000    -5.552000000    -0.661000000
H     0.309000000    -5.811000000    -0.547000000
H    -0.830000000    -5.100000000     0.152000000
O     1.975000000    -0.538000000    -4.537000000
H     2.408000000    -0.746000000    -3.710000000
H     1.295000000    -1.207000000    -4.626000000
O     1.783000000    -6.082000000    -2.006000000
H     1.696000000    -7.035000000    -2.036000000
H     2.420000000    -5.879000000    -2.691000000
O    -4.846000000    -2.390000000    -1.999000000
H    -5.568000000    -1.763000000    -1.966000000
H    -4.065000000    -1.866000000    -1.820000000
O    -0.428000000    -3.982000000    -2.810000000
H    -0.825000000    -4.536000000    -2.138000000
H     0.435000000    -3.762000000    -2.459000000
O    -3.178000000     0.361000000     4.771000000
H    -2.342000000     0.616000000     4.380000000
H    -3.505000000    -0.337000000     4.203000000
