158
-3057.17478
C     0.687000000    -0.876000000     0.803000000
H     1.171000000    -1.682000000     1.348000000
C     0.534000000    -1.052000000    -0.545000000
H     0.818000000    -1.928000000    -1.123000000
C    -0.153000000    -0.094000000    -1.222000000
H    -0.402000000    -0.212000000    -2.261000000
C    -0.534000000     1.066000000    -0.517000000
H    -0.961000000     1.820000000    -1.173000000
C    -0.258000000     1.299000000     0.817000000
H    -0.598000000     2.095000000     1.475000000
C     0.381000000     0.273000000     1.481000000
C     0.614000000     0.403000000     2.954000000
O     1.074000000    -0.521000000     3.591000000
O     0.392000000     1.477000000     3.543000000
O     3.682000000     1.663000000     1.565000000
H     3.156000000     1.949000000     0.819000000
H     4.464000000     1.274000000     1.172000000
O    -2.511000000     0.176000000     3.078000000
H    -1.898000000     0.894000000     3.241000000
H    -3.350000000     0.499000000     3.407000000
O    -2.384000000     3.548000000    -3.155000000
H    -2.662000000     2.680000000    -2.864000000
H    -3.165000000     4.094000000    -3.060000000
O     6.378000000    -0.443000000     2.995000000
H     5.510000000    -0.664000000     3.333000000
H     6.205000000     0.036000000     2.185000000
O     0.929000000     2.254000000    -5.215000000
H     1.162000000     2.464000000    -6.119000000
H     0.253000000     1.581000000    -5.292000000
O    -2.330000000    -1.292000000     5.389000000
H    -3.269000000    -1.250000000     5.211000000
H    -1.932000000    -1.466000000     4.536000000
O    -2.173000000    -3.145000000     0.712000000
H    -2.620000000    -2.356000000     0.406000000
H    -1.921000000    -2.943000000     1.613000000
O    -0.369000000    -0.124000000    -5.928000000
H    -0.818000000    -0.796000000    -5.415000000
H    -0.601000000    -0.322000000    -6.836000000
O     2.912000000     0.362000000    -4.856000000
H     2.042000000     0.759000000    -4.812000000
H     3.516000000     1.097000000    -4.748000000
O    -2.903000000    -0.319000000     0.209000000
H    -2.685000000    -0.115000000     1.118000000
H    -2.065000000    -0.283000000    -0.253000000
O    -0.589000000     1.010000000     5.959000000
H    -1.211000000     0.331000000     5.697000000
H    -0.165000000     1.274000000     5.142000000
O     1.481000000    -2.006000000     5.794000000
H     0.547000000    -2.193000000     5.880000000
H     1.538000000    -1.400000000     5.055000000
O    -4.098000000    -2.011000000    -5.599000000
H    -3.149000000    -1.888000000    -5.592000000
H    -4.216000000    -2.960000000    -5.636000000
O     1.478000000    -2.914000000    -7.324000000
H     2.027000000    -2.133000000    -7.261000000
H     0.586000000    -2.591000000    -7.194000000
O    -3.486000000     2.873000000     3.984000000
H    -2.786000000     3.518000000     4.082000000
H    -4.237000000     3.380000000     3.676000000
O    -2.002000000     4.850000000    -0.357000000
H    -2.362000000     5.491000000     0.256000000
H    -2.672000000     4.169000000    -0.412000000
O     0.063000000     4.628000000    -4.013000000
H     0.314000000     3.825000000    -4.469000000
H    -0.425000000     4.326000000    -3.246000000
O    -6.407000000     0.415000000    -2.503000000
H    -5.476000000     0.403000000    -2.727000000
H    -6.793000000    -0.275000000    -3.042000000
O     3.723000000    -1.212000000     3.570000000
H     3.829000000    -1.792000000     2.816000000
H     2.816000000    -0.909000000     3.513000000
O     0.813000000     4.410000000    -0.350000000
H    -0.015000000     4.892000000    -0.364000000
H     0.566000000     3.519000000    -0.104000000
O    -3.104000000     0.839000000    -2.617000000
H    -3.089000000    -0.112000000    -2.721000000
H    -3.461000000     0.979000000    -1.740000000
O     3.426000000    -4.975000000     3.182000000
H     4.134000000    -4.440000000     2.825000000
H     3.380000000    -4.727000000     4.105000000
O     2.289000000    -1.692000000     8.289000000
H     1.914000000    -1.082000000     8.924000000
H     1.796000000    -1.534000000     7.484000000
O    -4.023000000     1.112000000    -5.351000000
H    -3.583000000     1.190000000    -4.504000000
H    -3.764000000     0.250000000    -5.677000000
O    -1.009000000     4.430000000     4.602000000
H    -0.136000000     4.066000000     4.453000000
H    -0.985000000     5.290000000     4.183000000
O     3.299000000    -4.057000000     6.055000000
H     2.738000000    -3.282000000     6.041000000
H     2.741000000    -4.751000000     6.406000000
O     3.833000000    -1.189000000    -1.499000000
H     4.736000000    -1.201000000    -1.816000000
H     3.492000000    -2.057000000    -1.712000000
O     2.656000000     4.464000000    -2.711000000
H     1.919000000     4.798000000    -3.223000000
H     2.332000000     4.444000000    -1.810000000
O     3.091000000     5.734000000     0.530000000
H     2.804000000     6.382000000     1.174000000
H     2.292000000     5.264000000     0.292000000
O    -0.203000000    -4.599000000    -0.449000000
H    -0.982000000    -4.319000000     0.031000000
H     0.376000000    -4.959000000     0.224000000
O    -0.714000000     6.985000000    -1.633000000
H    -1.147000000     6.181000000    -1.349000000
H    -1.175000000     7.236000000    -2.433000000
O     0.877000000    -4.674000000     2.485000000
H     0.832000000    -5.613000000     2.302000000
H     1.788000000    -4.523000000     2.738000000
O    -4.368000000     3.158000000    -0.213000000
H    -5.055000000     3.581000000    -0.729000000
H    -4.830000000     2.497000000     0.303000000
O     0.000000000    -3.629000000    -3.110000000
H    -0.185000000    -4.094000000    -2.294000000
H     0.133000000    -4.322000000    -3.756000000
O     1.596000000     4.128000000     3.422000000
H     2.553000000     4.107000000     3.436000000
H     1.336000000     3.207000000     3.448000000
O     3.103000000    -0.768000000    -7.557000000
H     2.957000000    -0.358000000    -6.705000000
H     3.762000000    -0.217000000    -7.979000000
O     4.237000000     2.964000000     3.939000000
H     4.425000000     2.410000000     3.181000000
H     3.820000000     2.376000000     4.569000000
O     4.521000000    -3.118000000     1.410000000
H     5.456000000    -3.197000000     1.221000000
H     4.128000000    -2.872000000     0.573000000
O    -0.649000000    -2.715000000     3.521000000
H    -0.164000000    -3.480000000     3.211000000
H    -0.020000000    -1.995000000     3.465000000
O     4.822000000    -1.045000000     6.162000000
H     4.334000000    -1.364000000     5.403000000
H     4.150000000    -0.860000000     6.819000000
O    -4.238000000    -4.082000000    -3.518000000
H    -3.772000000    -4.629000000    -4.150000000
H    -5.042000000    -4.566000000    -3.329000000
O    -1.684000000    -1.698000000    -4.011000000
H    -2.554000000    -2.045000000    -3.816000000
H    -1.081000000    -2.341000000    -3.638000000
O     2.576000000    -2.179000000    -3.768000000
H     2.777000000    -1.279000000    -4.022000000
H     1.677000000    -2.142000000    -3.442000000
O     4.979000000    -3.416000000    -3.276000000
H     4.148000000    -2.962000000    -3.422000000
H     4.726000000    -4.310000000    -3.044000000
O    -3.867000000    -1.788000000    -2.214000000
H    -4.093000000    -2.606000000    -2.657000000
H    -4.301000000    -1.848000000    -1.363000000
O     2.582000000     1.188000000    -0.814000000
H     2.893000000     0.285000000    -0.752000000
H     1.679000000     1.110000000    -1.121000000
O     2.706000000    -3.750000000    -1.000000000
H     1.768000000    -3.900000000    -0.882000000
H     3.004000000    -4.496000000    -1.522000000
O     2.220000000     1.135000000     5.864000000
H     1.393000000     1.191000000     6.343000000
H     1.965000000     0.913000000     4.969000000
