158
-3054.52237
C     0.034000000    -0.614000000     1.426000000
H     0.086000000    -1.228000000     2.322000000
C     0.248000000    -1.319000000     0.182000000
H     0.682000000    -2.315000000     0.187000000
C     0.140000000    -0.573000000    -1.006000000
H     0.356000000    -1.119000000    -1.961000000
C    -0.095000000     0.745000000    -1.054000000
H    -0.309000000     1.227000000    -2.005000000
C    -0.318000000     1.467000000     0.109000000
H    -0.505000000     2.531000000    -0.016000000
C    -0.275000000     0.745000000     1.344000000
C    -0.472000000     1.456000000     2.657000000
O    -0.499000000     0.776000000     3.733000000
O    -0.522000000     2.675000000     2.669000000
O     0.807000000     0.106000000    -7.260000000
H     0.681000000     0.890000000    -6.726000000
H    -0.062000000    -0.088000000    -7.610000000
O     2.169000000     5.231000000    -4.524000000
H     1.889000000     4.657000000    -3.811000000
H     2.065000000     6.116000000    -4.174000000
O     4.788000000    -4.055000000    -2.697000000
H     5.569000000    -4.478000000    -2.341000000
H     4.490000000    -3.474000000    -1.997000000
O    -0.304000000     6.795000000     3.368000000
H     0.200000000     6.193000000     3.916000000
H    -0.566000000     6.268000000     2.613000000
O    -0.466000000     2.416000000    -6.089000000
H    -0.905000000     3.228000000    -5.837000000
H    -0.516000000     1.864000000    -5.309000000
O     2.017000000     3.397000000     1.747000000
H     1.085000000     3.202000000     1.844000000
H     2.213000000     3.991000000     2.472000000
O    -0.866000000    -1.320000000    -4.821000000
H    -1.267000000    -1.445000000    -5.681000000
H    -0.996000000    -2.156000000    -4.372000000
O    -3.899000000     5.752000000     1.519000000
H    -3.783000000     5.483000000     2.430000000
H    -3.023000000     5.691000000     1.138000000
O    -2.657000000    -2.740000000     1.646000000
H    -2.084000000    -3.442000000     1.954000000
H    -2.595000000    -2.066000000     2.323000000
O     4.181000000    -2.179000000    -0.566000000
H     5.062000000    -1.876000000    -0.781000000
H     3.606000000    -1.468000000    -0.850000000
O    -0.694000000     5.076000000    -1.791000000
H    -0.437000000     5.872000000    -2.256000000
H     0.054000000     4.487000000    -1.893000000
O    -1.794000000     1.266000000     6.192000000
H    -1.572000000     1.108000000     5.274000000
H    -1.462000000     0.497000000     6.654000000
O    -2.362000000    -4.709000000    -1.217000000
H    -1.987000000    -5.040000000    -0.401000000
H    -3.054000000    -5.333000000    -1.433000000
O     2.383000000    -1.793000000     3.949000000
H     2.694000000    -1.386000000     4.758000000
H     2.324000000    -1.070000000     3.325000000
O    -5.380000000     1.024000000     1.224000000
H    -4.735000000     1.233000000     1.901000000
H    -5.184000000     1.633000000     0.511000000
O    -0.827000000    -5.284000000     1.729000000
H    -0.303000000    -4.771000000     2.345000000
H    -0.761000000    -6.183000000     2.050000000
O     3.563000000     2.090000000     4.673000000
H     3.662000000     3.014000000     4.444000000
H     4.455000000     1.743000000     4.659000000
O     4.209000000    -4.503000000    -5.159000000
H     3.467000000    -4.077000000    -5.589000000
H     4.306000000    -4.035000000    -4.330000000
O     3.836000000     1.727000000    -4.705000000
H     3.062000000     1.477000000    -4.199000000
H     3.980000000     0.991000000    -5.300000000
O    -4.465000000    -0.594000000     5.723000000
H    -3.581000000    -0.836000000     5.445000000
H    -4.523000000     0.344000000     5.543000000
O    -3.304000000     4.823000000    -2.658000000
H    -2.455000000     4.675000000    -2.242000000
H    -3.278000000     5.739000000    -2.937000000
O     1.729000000    -4.839000000    -0.832000000
H     1.853000000    -4.246000000    -0.091000000
H     1.406000000    -4.278000000    -1.537000000
O    -3.420000000     2.546000000     2.741000000
H    -3.952000000     2.875000000     3.465000000
H    -2.594000000     3.026000000     2.813000000
O    -2.321000000    -1.585000000    -7.130000000
H    -2.996000000    -1.860000000    -6.510000000
H    -2.431000000    -2.172000000    -7.879000000
O    -2.448000000     5.384000000     6.634000000
H    -1.710000000     4.853000000     6.334000000
H    -2.402000000     5.341000000     7.589000000
O     3.798000000     3.565000000    -0.449000000
H     4.688000000     3.400000000    -0.137000000
H     3.253000000     3.501000000     0.336000000
O    -2.246000000    -1.284000000     3.949000000
H    -1.462000000    -1.421000000     4.481000000
H    -2.186000000    -0.372000000     3.665000000
O     1.468000000     3.526000000    -2.474000000
H     1.218000000     2.644000000    -2.748000000
H     2.202000000     3.391000000    -1.875000000
O     1.569000000     0.356000000    -4.045000000
H     1.757000000    -0.034000000    -3.191000000
H     0.958000000    -0.255000000    -4.458000000
O     4.909000000    -1.181000000    -4.125000000
H     5.275000000    -0.761000000    -4.903000000
H     5.547000000    -1.857000000    -3.895000000
O    -2.813000000    -1.119000000    -0.607000000
H    -1.997000000    -0.627000000    -0.506000000
H    -2.814000000    -1.734000000     0.126000000
O     1.655000000     3.515000000     7.736000000
H     0.959000000     3.313000000     8.360000000
H     1.497000000     2.923000000     7.000000000
O     3.239000000    -0.436000000     6.706000000
H     3.906000000    -0.440000000     7.393000000
H     2.577000000     0.181000000     7.018000000
O    -5.316000000     0.327000000    -1.579000000
H    -4.877000000     0.687000000    -2.350000000
H    -4.603000000     0.082000000    -0.989000000
O    -4.269000000     2.376000000     5.487000000
H    -4.501000000     3.180000000     5.952000000
H    -3.397000000     2.153000000     5.814000000
O    -1.450000000    -1.546000000     6.925000000
H    -0.571000000    -1.732000000     7.256000000
H    -1.865000000    -2.406000000     6.852000000
O     0.883000000    -3.895000000     3.550000000
H     1.366000000    -4.686000000     3.788000000
H     1.434000000    -3.175000000     3.857000000
O     2.843000000     0.524000000     1.440000000
H     2.269000000     0.114000000     0.793000000
H     2.337000000     1.265000000     1.773000000
O    -0.872000000     4.926000000     1.377000000
H    -0.506000000     4.895000000     0.492000000
H    -0.883000000     4.012000000     1.663000000
O     1.133000000     1.602000000     5.793000000
H     2.030000000     1.694000000     5.470000000
H     0.617000000     1.402000000     5.012000000
O     2.289000000    -2.232000000    -5.468000000
H     3.169000000    -1.910000000    -5.273000000
H     1.936000000    -1.601000000    -6.095000000
O     1.488000000    -3.342000000    -3.064000000
H     2.314000000    -3.775000000    -2.851000000
H     1.485000000    -3.288000000    -4.020000000
O    -1.162000000    -3.501000000    -3.221000000
H    -0.265000000    -3.654000000    -2.923000000
H    -1.707000000    -3.974000000    -2.592000000
O    -1.913000000     1.979000000    -3.575000000
H    -2.131000000     1.200000000    -3.063000000
H    -2.687000000     2.135000000    -4.115000000
O     1.010000000    -7.206000000    -1.653000000
H     1.165000000    -6.341000000    -1.275000000
H     0.212000000    -7.515000000    -1.226000000
O     3.745000000     0.242000000    -1.967000000
H     4.357000000     0.897000000    -1.630000000
H     4.210000000    -0.165000000    -2.698000000
O    -3.097000000    -0.456000000    -3.187000000
H    -3.156000000    -0.983000000    -2.390000000
H    -2.240000000    -0.671000000    -3.554000000
O    -0.147000000     3.925000000     4.921000000
H     0.270000000     3.254000000     5.461000000
H    -0.288000000     3.498000000     4.075000000
