158
-3040.78433
C     1.432000000     0.411000000    -0.400000000
H     2.437000000     0.804000000    -0.532000000
C     0.390000000     1.233000000    -0.112000000
H     0.492000000     2.309000000    -0.230000000
C    -0.895000000     0.729000000     0.276000000
H    -1.721000000     1.398000000     0.493000000
C    -1.072000000    -0.591000000     0.400000000
H    -2.028000000    -0.981000000     0.739000000
C    -0.057000000    -1.465000000    -0.054000000
H    -0.276000000    -2.526000000     0.026000000
C     1.190000000    -0.955000000    -0.444000000
C     2.284000000    -1.901000000    -0.792000000
O     2.112000000    -3.014000000    -0.374000000
O     3.164000000    -1.556000000    -1.583000000
O    -3.080000000     6.339000000    -2.094000000
H    -3.877000000     6.797000000    -2.360000000
H    -2.367000000     6.900000000    -2.400000000
O     4.607000000     3.867000000    -2.008000000
H     4.324000000     3.883000000    -2.922000000
H     4.800000000     4.782000000    -1.801000000
O    -4.214000000     1.867000000    -1.003000000
H    -3.522000000     2.528000000    -0.971000000
H    -4.104000000     1.447000000    -1.855000000
O    -3.427000000     3.414000000    -5.141000000
H    -4.360000000     3.225000000    -5.237000000
H    -3.153000000     2.893000000    -4.386000000
O    -2.148000000    -4.008000000     2.642000000
H    -2.394000000    -3.113000000     2.879000000
H    -1.563000000    -4.290000000     3.345000000
O    -5.691000000     4.656000000    -0.437000000
H    -5.282000000     5.199000000    -1.111000000
H    -5.440000000     3.761000000    -0.665000000
O     5.736000000    -5.478000000    -3.699000000
H     4.928000000    -5.987000000    -3.626000000
H     5.622000000    -4.758000000    -3.079000000
O    -5.430000000     0.776000000     4.161000000
H    -4.760000000     1.246000000     4.658000000
H    -5.384000000     1.152000000     3.282000000
O     5.014000000     1.174000000     1.480000000
H     4.769000000     0.345000000     1.890000000
H     5.336000000     0.926000000     0.613000000
O     3.671000000    -1.826000000    -6.346000000
H     3.198000000    -2.139000000    -5.575000000
H     3.501000000    -0.884000000    -6.366000000
O    -3.423000000     5.784000000     3.678000000
H    -2.988000000     6.549000000     3.302000000
H    -2.848000000     5.050000000     3.461000000
O     0.374000000    -4.143000000    -1.954000000
H     0.188000000    -3.572000000    -2.700000000
H     1.021000000    -3.661000000    -1.439000000
O    -0.517000000     4.020000000    -3.394000000
H    -1.169000000     4.171000000    -2.710000000
H     0.130000000     4.713000000    -3.265000000
O    -7.255000000     2.409000000     2.311000000
H    -7.827000000     1.646000000     2.401000000
H    -7.129000000     2.503000000     1.367000000
O    -4.522000000    -0.497000000     0.869000000
H    -4.415000000     0.408000000     0.574000000
H    -3.920000000    -0.581000000     1.608000000
O     3.308000000    -3.739000000     1.805000000
H     2.825000000    -3.432000000     1.038000000
H     3.027000000    -3.158000000     2.513000000
O     0.936000000     4.392000000     1.217000000
H     0.491000000     4.934000000     0.566000000
H     1.701000000     4.045000000     0.758000000
O    -2.360000000     3.908000000    -1.092000000
H    -1.781000000     4.323000000    -0.452000000
H    -2.724000000     4.637000000    -1.594000000
O     2.553000000    -2.866000000    -4.246000000
H     2.275000000    -3.781000000    -4.212000000
H     3.147000000    -2.768000000    -3.502000000
O    -0.731000000     6.212000000    -0.209000000
H    -1.566000000     6.619000000     0.020000000
H    -0.130000000     6.949000000    -0.328000000
O    -7.019000000     2.063000000    -0.228000000
H    -6.216000000     1.541000000    -0.215000000
H    -7.207000000     2.190000000    -1.158000000
O     0.059000000    -4.520000000     4.274000000
H     0.753000000    -5.172000000     4.175000000
H     0.425000000    -3.722000000     3.892000000
O     4.962000000    -5.363000000     0.356000000
H     4.882000000    -4.742000000    -0.368000000
H     4.513000000    -4.937000000     1.087000000
O     0.660000000     0.741000000     3.263000000
H     0.376000000     1.440000000     3.853000000
H     0.445000000     1.064000000     2.388000000
O    -2.500000000     1.570000000     2.874000000
H    -1.854000000     2.222000000     3.146000000
H    -3.248000000     2.085000000     2.573000000
O     3.537000000    -0.725000000     2.861000000
H     3.810000000    -1.224000000     3.630000000
H     2.584000000    -0.815000000     2.842000000
O    -3.885000000     1.332000000    -3.508000000
H    -4.427000000     1.099000000    -4.261000000
H    -3.172000000     0.693000000    -3.518000000
O    -0.929000000     3.935000000     3.205000000
H    -0.530000000     4.029000000     4.070000000
H    -0.242000000     4.201000000     2.595000000
O    -6.190000000    -2.763000000     0.440000000
H    -5.590000000    -2.078000000     0.737000000
H    -5.843000000    -3.568000000     0.825000000
O    -1.903000000    -0.727000000    -2.392000000
H    -1.438000000    -1.350000000    -2.951000000
H    -1.407000000    -0.724000000    -1.573000000
O     3.093000000     0.457000000    -3.529000000
H     3.183000000    -0.250000000    -2.890000000
H     2.198000000     0.777000000    -3.408000000
O     0.135000000    -6.740000000    -0.986000000
H     0.704000000    -6.456000000    -0.270000000
H     0.080000000    -5.979000000    -1.564000000
O     2.245000000     5.019000000     3.903000000
H     1.546000000     5.596000000     4.208000000
H     2.148000000     5.006000000     2.951000000
O     5.557000000    -0.008000000    -1.017000000
H     4.827000000    -0.406000000    -1.493000000
H     6.079000000     0.421000000    -1.695000000
O    -3.482000000    -5.740000000     1.214000000
H    -3.031000000    -5.001000000     1.622000000
H    -2.785000000    -6.361000000     1.005000000
O     3.987000000    -6.768000000    -1.998000000
H     4.147000000    -6.445000000    -1.111000000
H     3.185000000    -7.286000000    -1.924000000
O     0.529000000     1.602000000    -3.362000000
H     0.345000000     1.513000000    -2.427000000
H     0.164000000     2.455000000    -3.598000000
O     3.132000000     3.148000000     0.335000000
H     3.481000000     3.192000000    -0.555000000
H     3.706000000     2.530000000     0.788000000
O     5.218000000     1.206000000    -5.231000000
H     4.544000000     0.834000000    -4.662000000
H     4.729000000     1.691000000    -5.896000000
O     4.923000000    -3.461000000    -2.028000000
H     5.734000000    -2.979000000    -2.188000000
H     4.294000000    -2.791000000    -1.764000000
O    -0.395000000    -2.292000000    -3.990000000
H     0.444000000    -2.224000000    -4.445000000
H    -0.786000000    -3.098000000    -4.329000000
O     0.811000000    -2.044000000     2.886000000
H     0.560000000    -1.213000000     3.288000000
H     0.632000000    -1.923000000     1.953000000
O    -4.681000000     3.091000000     2.884000000
H    -5.457000000     3.075000000     2.323000000
H    -4.982000000     3.496000000     3.697000000
O    -3.680000000     1.859000000     5.947000000
H    -3.905000000     2.542000000     6.578000000
H    -2.761000000     1.659000000     6.127000000
O    -3.170000000    -0.975000000     3.140000000
H    -3.524000000    -0.896000000     4.025000000
H    -2.588000000    -0.221000000     3.046000000
O    -4.959000000    -1.905000000    -2.149000000
H    -4.013000000    -1.836000000    -2.275000000
H    -5.123000000    -1.464000000    -1.315000000
O     1.908000000    -6.435000000     0.987000000
H     2.152000000    -7.222000000     1.473000000
H     2.136000000    -5.712000000     1.572000000
O    -2.487000000    -4.127000000    -1.963000000
H    -2.859000000    -4.990000000    -1.780000000
H    -1.623000000    -4.147000000    -1.552000000
