158
-3030.27212
C     1.248000000    -0.789000000     0.011000000
H     2.269000000    -1.162000000     0.008000000
C     0.534000000    -0.607000000    -1.179000000
H     0.872000000    -0.946000000    -2.155000000
C    -0.608000000     0.179000000    -1.001000000
H    -1.198000000     0.305000000    -1.862000000
C    -1.157000000     0.524000000     0.230000000
H    -2.023000000     1.179000000     0.165000000
C    -0.491000000     0.182000000     1.431000000
H    -0.819000000     0.541000000     2.403000000
C     0.704000000    -0.493000000     1.309000000
C     1.564000000    -0.781000000     2.525000000
O     2.579000000    -1.372000000     2.467000000
O     1.164000000    -0.430000000     3.634000000
O     2.778000000     3.215000000    -4.629000000
H     3.070000000     3.202000000    -5.541000000
H     2.588000000     2.300000000    -4.425000000
O    -0.472000000     4.030000000    -5.697000000
H     0.191000000     3.406000000    -5.993000000
H    -0.802000000     3.659000000    -4.879000000
O    -0.091000000     3.601000000    -0.007000000
H     0.023000000     2.695000000    -0.294000000
H     0.176000000     3.597000000     0.912000000
O     4.492000000     0.240000000    -1.383000000
H     4.319000000     0.446000000    -2.301000000
H     4.309000000     1.055000000    -0.916000000
O    -0.570000000    -2.364000000     4.482000000
H     0.239000000    -2.170000000     4.007000000
H    -1.076000000    -1.553000000     4.435000000
O     3.163000000    -3.650000000    -1.538000000
H     2.919000000    -4.214000000    -2.273000000
H     4.009000000    -3.280000000    -1.791000000
O    -2.397000000     3.224000000    -1.850000000
H    -2.635000000     4.053000000    -2.266000000
H    -2.049000000     3.477000000    -0.995000000
O    -3.643000000     0.911000000    -3.073000000
H    -4.207000000     0.725000000    -2.323000000
H    -3.185000000     1.717000000    -2.835000000
O     6.116000000    -3.120000000    -1.503000000
H     6.416000000    -2.219000000    -1.382000000
H     6.497000000    -3.600000000    -0.768000000
O    -0.516000000     1.323000000    -6.932000000
H    -1.303000000     1.761000000    -6.609000000
H    -0.773000000     0.405000000    -7.025000000
O    -1.396000000    -4.837000000     5.484000000
H    -0.794000000    -4.174000000     5.144000000
H    -2.205000000    -4.358000000     5.660000000
O    -0.330000000    -3.762000000    -6.094000000
H    -0.372000000    -3.516000000    -5.170000000
H    -0.894000000    -4.532000000    -6.163000000
O     4.049000000     0.169000000    -4.283000000
H     4.168000000    -0.104000000    -5.193000000
H     3.114000000     0.358000000    -4.210000000
O    -4.506000000     1.956000000     1.342000000
H    -5.378000000     1.890000000     1.731000000
H    -4.116000000     2.725000000     1.757000000
O     1.458000000     0.792000000    -4.676000000
H     0.913000000     1.473000000    -4.282000000
H     0.981000000     0.528000000    -5.462000000
O     1.971000000    -0.884000000     6.229000000
H     1.339000000    -1.223000000     6.862000000
H     1.494000000    -0.868000000     5.399000000
O    -4.177000000    -3.892000000    -3.777000000
H    -3.845000000    -3.020000000    -3.563000000
H    -3.425000000    -4.350000000    -4.152000000
O    -2.534000000     5.930000000    -2.640000000
H    -3.249000000     6.498000000    -2.355000000
H    -1.980000000     6.494000000    -3.180000000
O    -2.291000000     2.816000000     4.881000000
H    -1.453000000     2.384000000     4.719000000
H    -2.703000000     2.872000000     4.018000000
O     2.267000000    -4.903000000    -3.959000000
H     1.525000000    -4.304000000    -4.036000000
H     1.989000000    -5.691000000    -4.426000000
O     2.167000000     2.028000000    -1.432000000
H     1.832000000     1.182000000    -1.132000000
H     1.499000000     2.349000000    -2.037000000
O    -3.138000000     1.573000000    -6.302000000
H    -4.031000000     1.312000000    -6.527000000
H    -3.046000000     1.341000000    -5.378000000
O    -6.856000000     3.488000000    -0.286000000
H    -6.089000000     2.921000000    -0.210000000
H    -7.566000000     2.986000000     0.113000000
O     1.717000000    -3.915000000     3.070000000
H     1.346000000    -4.089000000     2.205000000
H     2.127000000    -3.055000000     2.986000000
O    -5.658000000     0.480000000    -5.072000000
H    -6.320000000    -0.161000000    -4.815000000
H    -5.119000000     0.595000000    -4.290000000
O    -4.974000000     0.263000000    -0.634000000
H    -4.624000000     0.986000000    -0.114000000
H    -5.104000000    -0.445000000    -0.004000000
O     3.235000000    -3.408000000     7.039000000
H     3.699000000    -3.527000000     7.867000000
H     3.219000000    -2.460000000     6.908000000
O     0.030000000    -3.791000000    -0.542000000
H     0.925000000    -3.459000000    -0.612000000
H     0.134000000    -4.738000000    -0.447000000
O     2.452000000     3.300000000     6.040000000
H     2.062000000     4.152000000     6.236000000
H     1.756000000     2.814000000     5.597000000
O    -1.444000000    -1.234000000    -6.792000000
H    -0.975000000    -1.988000000    -6.435000000
H    -2.328000000    -1.560000000    -6.962000000
O     0.313000000     3.688000000     2.590000000
H    -0.339000000     4.389000000     2.624000000
H     0.312000000     3.318000000     3.472000000
O     5.168000000    -3.353000000     2.500000000
H     5.657000000    -3.749000000     3.222000000
H     4.356000000    -3.043000000     2.902000000
O    -2.397000000    -2.154000000    -0.070000000
H    -2.104000000    -1.248000000     0.024000000
H    -1.592000000    -2.653000000    -0.209000000
O    -0.031000000     2.632000000    -3.175000000
H    -0.854000000     2.404000000    -2.742000000
H     0.239000000     3.451000000    -2.761000000
O    -3.125000000     4.081000000     2.285000000
H    -3.206000000     4.563000000     3.108000000
H    -3.018000000     4.761000000     1.620000000
O    -0.107000000    -3.323000000    -3.302000000
H    -0.129000000    -3.704000000    -2.424000000
H    -0.918000000    -2.819000000    -3.365000000
O     0.171000000     1.743000000     4.715000000
H    -0.349000000     1.279000000     5.371000000
H     0.663000000     1.055000000     4.267000000
O    -2.906000000    -0.195000000     4.794000000
H    -3.828000000    -0.442000000     4.865000000
H    -2.628000000    -0.045000000     5.697000000
O     7.154000000    -0.715000000    -0.714000000
H     6.439000000    -0.084000000    -0.791000000
H     7.947000000    -0.194000000    -0.840000000
O    -0.832000000    -4.992000000     2.060000000
H    -0.624000000    -4.058000000     2.031000000
H    -0.795000000    -5.216000000     2.990000000
O    -3.099000000     6.086000000     0.510000000
H    -3.259000000     7.022000000     0.391000000
H    -2.390000000     5.884000000    -0.101000000
O     4.737000000    -1.074000000     5.813000000
H     3.804000000    -0.954000000     5.637000000
H     5.128000000    -0.220000000     5.624000000
O    -2.475000000    -1.744000000    -3.126000000
H    -2.692000000    -1.860000000    -2.201000000
H    -2.666000000    -0.822000000    -3.303000000
O     4.005000000    -5.410000000     0.946000000
H     3.697000000    -4.710000000     0.371000000
H     4.484000000    -4.957000000     1.640000000
O     4.329000000     2.005000000     2.761000000
H     4.597000000     1.953000000     1.844000000
H     4.197000000     1.094000000     3.025000000
O    -1.070000000     0.431000000     7.231000000
H    -0.875000000    -0.281000000     7.840000000
H    -1.362000000     1.152000000     7.789000000
O     4.922000000    -0.366000000     1.362000000
H     4.606000000    -0.427000000     0.461000000
H     4.348000000    -0.949000000     1.858000000
O     2.797000000     1.147000000     7.859000000
H     2.603000000     0.502000000     7.180000000
H     2.751000000     1.990000000     7.408000000
