158
-3051.39364
C     1.104000000    -0.922000000    -0.268000000
H     2.016000000    -1.442000000    -0.551000000
C     0.143000000    -0.506000000    -1.206000000
H     0.399000000    -0.526000000    -2.262000000
C    -0.851000000     0.352000000    -0.847000000
H    -1.495000000     0.947000000    -1.549000000
C    -1.013000000     0.634000000     0.458000000
H    -1.820000000     1.296000000     0.762000000
C    -0.177000000     0.091000000     1.447000000
H    -0.450000000     0.168000000     2.497000000
C     0.963000000    -0.634000000     1.101000000
C     2.016000000    -1.042000000     2.121000000
O     2.695000000    -2.062000000     1.907000000
O     2.222000000    -0.328000000     3.131000000
O    -3.432000000    -1.291000000    -2.492000000
H    -2.747000000    -1.865000000    -2.149000000
H    -4.189000000    -1.865000000    -2.610000000
O     0.823000000     2.875000000    -0.449000000
H     0.551000000     1.963000000    -0.350000000
H     1.765000000     2.863000000    -0.282000000
O     4.171000000    -0.911000000    -3.682000000
H     3.467000000    -0.530000000    -4.207000000
H     4.530000000    -0.172000000    -3.191000000
O     1.155000000    -4.444000000     1.558000000
H     1.889000000    -4.933000000     1.186000000
H     1.533000000    -3.605000000     1.819000000
O     2.771000000    -5.086000000    -2.590000000
H     3.255000000    -5.779000000    -3.039000000
H     3.384000000    -4.351000000    -2.553000000
O    -2.015000000     5.395000000    -4.178000000
H    -1.771000000     5.524000000    -5.094000000
H    -2.245000000     6.271000000    -3.866000000
O    -2.546000000     2.794000000    -3.947000000
H    -3.218000000     2.518000000    -3.325000000
H    -2.423000000     3.726000000    -3.769000000
O     4.427000000    -2.915000000    -1.728000000
H     4.352000000    -2.335000000    -2.485000000
H     4.919000000    -2.405000000    -1.084000000
O    -3.793000000     0.215000000     2.182000000
H    -3.979000000     1.038000000     1.730000000
H    -3.213000000    -0.259000000     1.587000000
O    -0.307000000    -2.945000000     4.630000000
H    -0.827000000    -3.645000000     5.026000000
H    -0.609000000    -2.147000000     5.064000000
O    -6.746000000    -0.605000000     2.764000000
H    -6.120000000     0.089000000     2.558000000
H    -6.408000000    -1.002000000     3.566000000
O     2.218000000     0.712000000    -4.812000000
H     1.731000000     1.392000000    -4.347000000
H     1.549000000     0.222000000    -5.290000000
O    -3.994000000     2.545000000     0.770000000
H    -3.350000000     3.150000000     1.137000000
H    -4.818000000     3.031000000     0.791000000
O     0.354000000     3.530000000    -6.335000000
H     0.306000000     3.274000000    -5.414000000
H    -0.235000000     2.923000000    -6.783000000
O     2.391000000     0.272000000     5.781000000
H     1.515000000     0.523000000     6.076000000
H     2.281000000     0.067000000     4.852000000
O     3.179000000    -5.643000000     4.143000000
H     3.990000000    -5.720000000     4.646000000
H     2.859000000    -4.763000000     4.339000000
O    -3.409000000    -2.235000000    -5.663000000
H    -2.996000000    -1.943000000    -4.851000000
H    -2.725000000    -2.728000000    -6.116000000
O     1.193000000     5.639000000    -3.099000000
H     0.601000000     6.315000000    -2.767000000
H     0.617000000     4.911000000    -3.335000000
O     1.203000000     2.986000000     3.789000000
H     1.387000000     3.661000000     3.137000000
H     1.711000000     2.228000000     3.500000000
O     2.841000000    -7.110000000     1.689000000
H     2.947000000    -6.245000000     2.084000000
H     3.616000000    -7.598000000     1.969000000
O    -4.908000000    -0.220000000    -6.944000000
H    -5.129000000     0.037000000    -6.049000000
H    -4.133000000    -0.774000000    -6.850000000
O    -4.302000000     2.738000000    -6.450000000
H    -4.749000000     1.951000000    -6.139000000
H    -3.835000000     3.068000000    -5.682000000
O    -5.342000000     4.690000000    -2.829000000
H    -4.741000000     5.387000000    -2.566000000
H    -5.792000000     4.444000000    -2.021000000
O     2.423000000    -3.129000000     4.476000000
H     1.486000000    -2.935000000     4.495000000
H     2.770000000    -2.565000000     3.785000000
O    -5.437000000     1.054000000    -4.653000000
H    -6.355000000     0.863000000    -4.462000000
H    -5.096000000     1.427000000    -3.840000000
O    -4.470000000    -0.745000000     4.631000000
H    -4.552000000    -1.698000000     4.607000000
H    -3.724000000    -0.555000000     4.061000000
O    -4.365000000     1.365000000    -2.026000000
H    -4.407000000     1.507000000    -1.081000000
H    -3.938000000     0.514000000    -2.122000000
O     5.148000000    -0.214000000     5.732000000
H     5.410000000    -0.926000000     6.316000000
H     4.226000000    -0.062000000     5.939000000
O     0.331000000    -3.884000000    -1.742000000
H     1.234000000    -4.093000000    -1.981000000
H    -0.043000000    -4.720000000    -1.463000000
O     5.594000000    -2.848000000     4.105000000
H     5.199000000    -2.034000000     3.794000000
H     4.860000000    -3.351000000     4.458000000
O     5.982000000    -1.737000000     0.375000000
H     6.734000000    -1.185000000     0.162000000
H     6.049000000    -1.880000000     1.319000000
O    -0.510000000    -2.823000000    -7.234000000
H    -0.075000000    -2.978000000    -6.396000000
H    -0.676000000    -3.699000000    -7.582000000
O    -2.024000000    -2.815000000    -0.935000000
H    -1.989000000    -2.396000000    -0.075000000
H    -1.110000000    -3.004000000    -1.146000000
O     0.248000000     3.017000000    -3.275000000
H    -0.670000000     2.959000000    -3.538000000
H     0.250000000     2.759000000    -2.353000000
O    -0.666000000    -3.373000000    -4.372000000
H    -0.227000000    -3.468000000    -3.527000000
H    -0.899000000    -2.446000000    -4.418000000
O     6.710000000     1.944000000     1.972000000
H     6.168000000     1.355000000     2.497000000
H     6.546000000     2.812000000     2.340000000
O    -1.722000000    -2.642000000     1.790000000
H    -1.273000000    -2.204000000     2.513000000
H    -2.056000000    -3.454000000     2.171000000
O    -1.238000000    -5.526000000     2.461000000
H    -0.524000000    -5.000000000     2.099000000
H    -0.812000000    -6.103000000     3.095000000
O     4.542000000     0.636000000     3.222000000
H     3.628000000     0.351000000     3.203000000
H     4.841000000     0.422000000     4.106000000
O    -0.644000000    -0.504000000     6.104000000
H    -1.041000000    -0.301000000     6.951000000
H    -0.761000000     0.293000000     5.587000000
O    -5.254000000    -3.322000000    -2.940000000
H    -5.984000000    -3.788000000    -2.533000000
H    -5.235000000    -3.647000000    -3.840000000
O     5.850000000    -6.020000000     1.029000000
H     5.671000000    -6.945000000     0.861000000
H     4.988000000    -5.605000000     1.030000000
O    -1.318000000    -0.719000000    -4.211000000
H    -1.883000000    -0.538000000    -3.460000000
H    -1.377000000     0.069000000    -4.751000000
O     3.903000000    -4.172000000     0.908000000
H     3.871000000    -3.905000000    -0.011000000
H     3.665000000    -3.383000000     1.395000000
O    -0.789000000     1.928000000     5.066000000
H    -1.482000000     2.555000000     5.273000000
H    -0.126000000     2.445000000     4.610000000
O     3.887000000     3.689000000    -0.353000000
H     4.194000000     2.797000000    -0.195000000
H     3.760000000     3.735000000    -1.301000000
O     4.253000000     1.078000000     0.481000000
H     4.251000000     0.159000000     0.212000000
H     4.472000000     1.054000000     1.412000000
O     4.057000000     3.035000000     5.478000000
H     3.424000000     2.337000000     5.644000000
H     3.577000000     3.843000000     5.663000000
