158
-3017.77863
C     1.213000000     0.441000000    -0.825000000
H     2.159000000     0.821000000    -1.204000000
C     0.274000000     1.264000000    -0.280000000
H     0.352000000     2.336000000    -0.442000000
C    -0.808000000     0.722000000     0.450000000
H    -1.530000000     1.278000000     0.908000000
C    -1.054000000    -0.650000000     0.570000000
H    -1.947000000    -0.973000000     1.098000000
C    -0.070000000    -1.487000000     0.158000000
H    -0.034000000    -2.551000000     0.380000000
C     1.026000000    -0.942000000    -0.599000000
C     2.175000000    -1.895000000    -0.914000000
O     2.117000000    -3.038000000    -0.595000000
O     3.044000000    -1.598000000    -1.721000000
O     0.447000000    -4.714000000     4.227000000
H     0.614000000    -5.656000000     4.267000000
H    -0.448000000    -4.617000000     4.552000000
O    -1.702000000    -2.442000000    -4.701000000
H    -2.552000000    -2.690000000    -4.338000000
H    -1.064000000    -2.902000000    -4.155000000
O     4.978000000     2.698000000    -1.368000000
H     4.245000000     2.976000000    -0.818000000
H     5.179000000     3.465000000    -1.904000000
O    -2.937000000     1.997000000    -2.073000000
H    -2.258000000     1.591000000    -1.534000000
H    -3.269000000     1.283000000    -2.619000000
O    -4.351000000     3.726000000    -0.453000000
H    -3.863000000     3.088000000    -0.974000000
H    -5.253000000     3.405000000    -0.465000000
O    -6.203000000     0.639000000     5.086000000
H    -5.507000000     0.707000000     5.740000000
H    -6.092000000     1.415000000     4.537000000
O     3.925000000     0.365000000     1.897000000
H     4.120000000    -0.222000000     2.627000000
H     4.431000000     0.014000000     1.165000000
O     3.545000000    -3.167000000    -6.408000000
H     3.591000000    -3.438000000    -5.491000000
H     2.619000000    -2.974000000    -6.554000000
O    -5.796000000     4.265000000     4.167000000
H    -6.004000000     5.199000000     4.172000000
H    -4.840000000     4.232000000     4.199000000
O    -3.273000000     4.927000000     4.347000000
H    -2.829000000     5.295000000     3.583000000
H    -2.696000000     4.222000000     4.642000000
O     0.732000000    -5.156000000    -0.680000000
H     0.985000000    -5.524000000     0.167000000
H     1.344000000    -4.433000000    -0.819000000
O     1.115000000     3.260000000    -3.221000000
H     0.556000000     3.363000000    -2.451000000
H     1.368000000     4.154000000    -3.454000000
O     6.466000000    -4.124000000    -0.734000000
H     6.572000000    -3.521000000     0.002000000
H     7.042000000    -3.774000000    -1.414000000
O    -2.250000000     0.804000000     6.018000000
H    -2.757000000     0.961000000     5.221000000
H    -1.337000000     0.864000000     5.736000000
O    -6.534000000     2.278000000    -0.135000000
H    -6.596000000     1.514000000    -0.708000000
H    -7.387000000     2.705000000    -0.213000000
O    -5.598000000    -2.040000000     0.614000000
H    -6.091000000    -2.613000000     1.201000000
H    -6.265000000    -1.501000000     0.189000000
O     4.260000000    -6.532000000     1.857000000
H     4.839000000    -6.068000000     1.252000000
H     3.630000000    -5.870000000     2.141000000
O     3.273000000    -3.759000000     1.792000000
H     2.792000000    -3.309000000     1.098000000
H     2.678000000    -3.746000000     2.542000000
O     1.732000000     4.515000000     2.722000000
H     0.909000000     4.814000000     2.337000000
H     1.853000000     3.631000000     2.375000000
O    -1.881000000     4.447000000    -3.169000000
H    -2.406000000     3.714000000    -2.848000000
H    -2.315000000     5.224000000    -2.816000000
O     3.100000000    -3.852000000    -3.605000000
H     3.072000000    -4.692000000    -3.145000000
H     3.270000000    -3.208000000    -2.917000000
O    -1.092000000     4.855000000     1.531000000
H    -1.773000000     5.464000000     1.817000000
H    -0.790000000     5.210000000     0.695000000
O     6.235000000    -4.225000000     2.251000000
H     6.650000000    -3.381000000     2.072000000
H     5.301000000    -4.024000000     2.308000000
O    -1.162000000    -1.389000000     3.767000000
H    -0.382000000    -1.613000000     3.259000000
H    -1.396000000    -0.509000000     3.471000000
O    -2.947000000     0.968000000     3.163000000
H    -2.337000000     1.680000000     2.971000000
H    -3.754000000     1.216000000     2.712000000
O     6.420000000     0.552000000    -2.999000000
H     5.876000000     0.113000000    -3.652000000
H     5.847000000     1.218000000    -2.619000000
O    -0.931000000     1.865000000    -4.888000000
H    -0.555000000     0.985000000    -4.851000000
H    -0.490000000     2.343000000    -4.185000000
O    -1.208000000     2.995000000     3.477000000
H    -0.307000000     2.854000000     3.768000000
H    -1.149000000     3.722000000     2.857000000
O     7.019000000    -1.960000000     1.235000000
H     6.252000000    -1.590000000     0.798000000
H     7.624000000    -1.224000000     1.322000000
O    -6.050000000     5.517000000     0.851000000
H    -6.831000000     5.018000000     1.092000000
H    -5.402000000     4.850000000     0.621000000
O     3.436000000     5.808000000     0.539000000
H     3.909000000     5.590000000     1.343000000
H     2.518000000     5.634000000     0.747000000
O     0.312000000    -0.690000000    -4.815000000
H    -0.205000000    -1.489000000    -4.921000000
H     0.816000000    -0.835000000    -4.014000000
O     4.145000000    -0.561000000    -4.065000000
H     3.887000000    -0.964000000    -3.236000000
H     3.413000000     0.013000000    -4.292000000
O     5.030000000    -0.697000000    -0.142000000
H     4.347000000    -1.116000000    -0.666000000
H     5.448000000    -0.081000000    -0.743000000
O    -0.503000000     5.815000000    -0.843000000
H    -1.287000000     6.358000000    -0.921000000
H    -0.306000000     5.548000000    -1.740000000
O     3.648000000    -7.535000000    -1.971000000
H     3.689000000    -6.603000000    -1.758000000
H     3.459000000    -7.559000000    -2.909000000
O    -2.947000000     6.683000000     1.940000000
H    -3.499000000     6.928000000     1.197000000
H    -3.271000000     7.217000000     2.665000000
O     2.527000000     1.570000000    -4.783000000
H     2.379000000     2.191000000    -5.496000000
H     2.241000000     2.035000000    -3.996000000
O     1.580000000     1.446000000     2.753000000
H     0.910000000     1.324000000     2.080000000
H     2.393000000     1.161000000     2.336000000
O     3.873000000    -5.121000000    -0.903000000
H     4.777000000    -4.840000000    -0.760000000
H     3.345000000    -4.362000000    -0.656000000
O     0.303000000    -3.415000000    -3.010000000
H     1.222000000    -3.532000000    -3.254000000
H     0.212000000    -3.892000000    -2.185000000
O     2.319000000    -2.596000000     4.446000000
H     2.249000000    -2.435000000     5.387000000
H     1.648000000    -3.254000000     4.265000000
O    -5.556000000     2.042000000     2.453000000
H    -5.952000000     2.209000000     1.598000000
H    -5.858000000     2.765000000     3.002000000
O    -3.524000000    -2.911000000     3.518000000
H    -4.230000000    -2.626000000     4.098000000
H    -2.919000000    -2.170000000     3.493000000
O    -4.051000000    -2.577000000    -3.283000000
H    -3.715000000    -3.032000000    -2.510000000
H    -4.942000000    -2.909000000    -3.387000000
O     0.507000000     0.995000000     5.160000000
H     1.099000000     0.897000000     4.414000000
H     1.069000000     0.885000000     5.927000000
O    -4.042000000    -4.003000000    -0.833000000
H    -4.329000000    -3.223000000    -0.359000000
H    -4.853000000    -4.403000000    -1.148000000
O    -1.788000000    -6.300000000    -0.440000000
H    -2.244000000    -5.466000000    -0.558000000
H    -0.861000000    -6.064000000    -0.410000000
