158
-3038.03982
C     1.317000000    -0.384000000     0.476000000
H     2.251000000    -0.840000000     0.795000000
C     0.768000000    -0.784000000    -0.677000000
H     1.314000000    -1.539000000    -1.238000000
C    -0.557000000    -0.416000000    -1.056000000
H    -0.987000000    -0.879000000    -2.018000000
C    -1.258000000     0.450000000    -0.198000000
H    -2.263000000     0.780000000    -0.451000000
C    -0.640000000     0.871000000     1.037000000
H    -1.238000000     1.498000000     1.694000000
C     0.637000000     0.462000000     1.395000000
C     1.309000000     0.801000000     2.724000000
O     2.512000000     0.791000000     2.774000000
O     0.578000000     1.212000000     3.650000000
O     2.179000000    -3.195000000     2.545000000
H     1.259000000    -2.945000000     2.458000000
H     2.419000000    -2.920000000     3.430000000
O    -2.894000000     5.819000000     2.425000000
H    -3.697000000     5.336000000     2.621000000
H    -2.674000000     5.565000000     1.529000000
O    -5.180000000    -4.651000000    -2.660000000
H    -4.482000000    -5.301000000    -2.745000000
H    -5.698000000    -4.749000000    -3.459000000
O     4.242000000    -2.933000000     0.737000000
H     3.976000000    -3.587000000     0.090000000
H     3.586000000    -3.004000000     1.431000000
O     2.839000000    -4.238000000    -1.133000000
H     3.175000000    -3.652000000    -1.811000000
H     2.463000000    -4.973000000    -1.618000000
O    -1.683000000     4.889000000    -2.085000000
H    -1.219000000     4.064000000    -2.224000000
H    -1.759000000     5.271000000    -2.960000000
O     5.082000000    -0.302000000    -0.798000000
H     4.689000000     0.078000000    -1.584000000
H     4.733000000    -1.192000000    -0.762000000
O    -0.331000000    -2.362000000     2.440000000
H    -1.151000000    -2.770000000     2.717000000
H    -0.569000000    -1.841000000     1.673000000
O    -1.741000000     3.270000000    -4.931000000
H    -1.723000000     2.629000000    -5.641000000
H    -1.030000000     3.003000000    -4.349000000
O     0.423000000    -1.171000000     8.480000000
H     1.103000000    -1.585000000     9.011000000
H     0.900000000    -0.744000000     7.769000000
O     1.617000000    -5.525000000     0.972000000
H     2.144000000    -5.220000000     1.710000000
H     1.958000000    -5.043000000     0.219000000
O    -0.337000000     2.550000000    -2.457000000
H     0.519000000     2.124000000    -2.425000000
H    -0.876000000     2.052000000    -1.842000000
O    -3.694000000    -0.313000000     1.649000000
H    -2.994000000    -0.317000000     2.302000000
H    -3.345000000    -0.829000000     0.922000000
O     0.876000000     0.085000000    -4.263000000
H     0.714000000     0.136000000    -3.321000000
H     0.137000000    -0.418000000    -4.606000000
O     1.240000000    -6.049000000    -2.233000000
H     1.226000000    -6.442000000    -3.106000000
H     0.396000000    -5.606000000    -2.156000000
O     2.045000000     3.812000000     4.201000000
H     2.355000000     4.284000000     3.428000000
H     1.531000000     3.086000000     3.849000000
O     2.835000000    -1.446000000     4.517000000
H     2.233000000    -1.020000000     5.127000000
H     3.018000000    -0.779000000     3.855000000
O     5.521000000     3.707000000     2.595000000
H     5.501000000     3.316000000     3.469000000
H     5.451000000     2.963000000     1.998000000
O    -4.384000000     1.712000000    -4.524000000
H    -4.436000000     1.059000000    -3.826000000
H    -3.523000000     2.115000000    -4.411000000
O     1.325000000    -3.156000000    -4.530000000
H     0.442000000    -3.241000000    -4.889000000
H     1.884000000    -3.614000000    -5.158000000
O     4.582000000     1.608000000     4.308000000
H     4.209000000     1.889000000     5.144000000
H     3.885000000     1.099000000     3.894000000
O    -3.203000000    -1.202000000    -6.990000000
H    -4.156000000    -1.215000000    -6.897000000
H    -3.021000000    -1.843000000    -7.678000000
O     3.111000000     0.298000000    -5.784000000
H     2.261000000     0.216000000    -5.352000000
H     3.056000000    -0.295000000    -6.533000000
O    -4.302000000    -0.691000000    -3.055000000
H    -5.144000000    -1.017000000    -3.374000000
H    -4.188000000    -1.116000000    -2.205000000
O    -1.906000000    -1.069000000     6.668000000
H    -1.004000000    -1.203000000     6.959000000
H    -2.442000000    -1.367000000     7.403000000
O    -5.504000000    -2.020000000     2.753000000
H    -6.152000000    -2.093000000     2.051000000
H    -5.061000000    -1.189000000     2.585000000
O     4.481000000    -0.539000000     6.559000000
H     4.762000000    -1.245000000     7.140000000
H     3.934000000    -0.971000000     5.903000000
O     6.988000000     0.225000000     4.278000000
H     6.806000000    -0.321000000     3.513000000
H     6.143000000     0.618000000     4.498000000
O    -1.634000000     0.766000000    -6.272000000
H    -0.888000000     0.614000000    -6.854000000
H    -2.233000000     0.043000000    -6.458000000
O    -2.824000000     4.707000000     5.303000000
H    -2.546000000     5.273000000     4.582000000
H    -2.033000000     4.229000000     5.551000000
O    -1.098000000    -3.971000000    -5.484000000
H    -1.590000000    -4.276000000    -6.246000000
H    -1.633000000    -3.266000000    -5.119000000
O     2.158000000     1.920000000    -2.045000000
H     2.746000000     1.633000000    -2.743000000
H     2.594000000     1.647000000    -1.237000000
O    -1.293000000     1.871000000     6.997000000
H    -0.645000000     1.190000000     7.177000000
H    -0.789000000     2.582000000     6.600000000
O    -0.882000000    -4.297000000    -2.671000000
H    -0.317000000    -3.533000000    -2.561000000
H    -1.396000000    -4.104000000    -3.455000000
O     3.071000000     5.607000000     2.382000000
H     2.944000000     5.910000000     1.483000000
H     3.772000000     4.958000000     2.319000000
O     3.777000000    -2.115000000    -3.414000000
H     2.925000000    -2.077000000    -3.848000000
H     4.391000000    -2.346000000    -4.111000000
O    -2.082000000    -1.801000000    -4.221000000
H    -2.623000000    -1.761000000    -3.432000000
H    -2.579000000    -1.311000000    -4.877000000
O    -5.038000000     1.460000000     5.222000000
H    -4.158000000     1.307000000     4.877000000
H    -4.961000000     1.286000000     6.160000000
O     3.365000000     4.343000000     6.667000000
H     2.671000000     3.942000000     6.144000000
H     3.051000000     5.229000000     6.845000000
O    -2.164000000     0.126000000     4.099000000
H    -2.230000000    -0.188000000     5.001000000
H    -1.311000000     0.558000000     4.057000000
O     1.238000000    -0.008000000     6.124000000
H     1.830000000     0.555000000     6.623000000
H     1.037000000     0.495000000     5.335000000
O    -5.892000000     3.920000000    -0.761000000
H    -5.768000000     3.395000000     0.029000000
H    -6.838000000     4.055000000    -0.814000000
O    -4.400000000    -2.402000000    -0.864000000
H    -4.415000000    -3.216000000    -1.368000000
H    -5.294000000    -2.305000000    -0.537000000
O     5.954000000    -1.237000000     1.880000000
H     6.706000000    -0.927000000     1.374000000
H     5.467000000    -1.790000000     1.270000000
O    -0.089000000     3.889000000     5.923000000
H     0.461000000     4.400000000     6.516000000
H     0.400000000     3.869000000     5.100000000
O     5.047000000     3.987000000    -0.921000000
H     4.752000000     3.222000000    -0.427000000
H     4.815000000     4.733000000    -0.369000000
O     4.262000000     1.898000000     0.808000000
H     4.747000000     1.139000000     0.484000000
H     3.729000000     1.553000000     1.524000000
O    -5.691000000     1.717000000     1.018000000
H    -4.865000000     1.307000000     1.277000000
H    -6.235000000     1.675000000     1.805000000
