158
-3027.75382
C     1.093000000    -0.865000000     0.264000000
H     1.850000000    -1.626000000     0.431000000
C     0.273000000    -0.944000000    -0.857000000
H     0.393000000    -1.743000000    -1.584000000
C    -0.779000000    -0.056000000    -0.968000000
H    -1.505000000    -0.173000000    -1.708000000
C    -0.927000000     1.001000000    -0.051000000
H    -1.793000000     1.654000000    -0.125000000
C    -0.026000000     1.150000000     0.995000000
H    -0.254000000     1.832000000     1.811000000
C     1.031000000     0.179000000     1.155000000
C     1.858000000     0.173000000     2.403000000
O     2.893000000    -0.456000000     2.440000000
O     1.666000000     1.083000000     3.191000000
O     2.829000000    -4.640000000     0.160000000
H     2.582000000    -4.206000000    -0.657000000
H     3.100000000    -3.926000000     0.737000000
O    -2.925000000    -4.523000000     1.438000000
H    -3.624000000    -5.164000000     1.303000000
H    -3.330000000    -3.681000000     1.233000000
O    -2.845000000     4.217000000     0.728000000
H    -2.900000000     3.280000000     0.539000000
H    -3.593000000     4.598000000     0.268000000
O     5.416000000    -2.597000000    -0.518000000
H     5.096000000    -3.240000000    -1.150000000
H     4.833000000    -2.690000000     0.236000000
O    -3.783000000     4.665000000    -3.553000000
H    -4.325000000     3.876000000    -3.556000000
H    -3.020000000     4.433000000    -4.082000000
O    -0.186000000     4.675000000     0.210000000
H     0.088000000     3.909000000    -0.296000000
H    -1.125000000     4.548000000     0.345000000
O     5.807000000     0.143000000    -0.720000000
H     5.838000000    -0.776000000    -0.986000000
H     5.454000000     0.601000000    -1.482000000
O    -1.449000000    -1.494000000     1.619000000
H    -1.164000000    -0.590000000     1.485000000
H    -1.377000000    -1.630000000     2.564000000
O    -0.040000000     1.303000000    -4.734000000
H     0.192000000     1.169000000    -5.653000000
H     0.781000000     1.178000000    -4.259000000
O     2.104000000    -2.707000000     6.097000000
H     2.804000000    -2.709000000     6.750000000
H     2.088000000    -1.809000000     5.765000000
O    -5.508000000    -0.657000000    -1.667000000
H    -5.826000000    -0.272000000    -0.850000000
H    -6.282000000    -1.064000000    -2.057000000
O     2.501000000     0.606000000    -3.988000000
H     3.271000000     0.828000000    -3.465000000
H     2.379000000    -0.333000000    -3.849000000
O    -3.799000000    -0.109000000     1.581000000
H    -3.716000000    -0.029000000     2.531000000
H    -3.150000000    -0.769000000     1.338000000
O     4.660000000     0.289000000     7.356000000
H     4.242000000    -0.227000000     6.667000000
H     5.414000000    -0.237000000     7.624000000
O     1.792000000    -2.318000000    -3.866000000
H     1.587000000    -3.113000000    -3.373000000
H     1.526000000    -2.518000000    -4.764000000
O     2.355000000     3.672000000     3.606000000
H     2.530000000     4.265000000     2.875000000
H     1.958000000     2.902000000     3.200000000
O     3.534000000    -3.044000000     2.114000000
H     3.191000000    -3.672000000     2.748000000
H     3.217000000    -2.195000000     2.421000000
O     7.537000000     1.277000000     1.029000000
H     7.443000000     1.109000000     0.091000000
H     6.652000000     1.488000000     1.325000000
O    -3.229000000     1.122000000    -7.463000000
H    -2.972000000     1.030000000    -6.545000000
H    -4.081000000     1.559000000    -7.430000000
O    -2.944000000     1.330000000    -4.659000000
H    -3.258000000     0.462000000    -4.407000000
H    -1.992000000     1.274000000    -4.576000000
O     4.926000000    -0.758000000     4.147000000
H     4.801000000    -1.677000000     4.384000000
H     4.139000000    -0.528000000     3.654000000
O    -5.759000000     2.720000000    -3.895000000
H    -5.376000000     1.902000000    -4.210000000
H    -6.606000000     2.775000000    -4.338000000
O    -3.515000000    -1.024000000    -3.618000000
H    -4.121000000    -0.938000000    -2.882000000
H    -2.945000000    -1.754000000    -3.376000000
O    -1.107000000    -1.784000000     4.328000000
H    -1.484000000    -1.602000000     5.189000000
H    -0.613000000    -2.595000000     4.450000000
O    -4.821000000    -3.068000000     0.097000000
H    -4.887000000    -3.336000000    -0.819000000
H    -4.609000000    -2.135000000     0.060000000
O     7.721000000    -1.461000000     4.187000000
H     7.831000000    -0.961000000     3.378000000
H     6.790000000    -1.382000000     4.393000000
O     1.036000000    -4.229000000    -2.345000000
H     0.788000000    -5.150000000    -2.255000000
H     0.567000000    -3.785000000    -1.638000000
O     0.421000000     6.207000000     2.168000000
H     0.019000000     5.691000000     1.469000000
H     0.007000000     5.887000000     2.970000000
O     1.353000000    -6.934000000     0.134000000
H     1.305000000    -7.170000000    -0.792000000
H     1.507000000    -5.990000000     0.134000000
O     2.796000000     4.516000000    -0.774000000
H     2.491000000     5.291000000    -1.245000000
H     2.093000000     3.877000000    -0.884000000
O    -0.720000000    -3.674000000    -0.144000000
H    -0.985000000    -2.821000000     0.201000000
H    -1.276000000    -4.302000000     0.317000000
O     0.618000000     2.999000000    -2.062000000
H     0.044000000     3.203000000    -2.801000000
H     0.460000000     2.072000000    -1.884000000
O    -3.260000000     3.429000000     4.304000000
H    -2.650000000     2.762000000     3.991000000
H    -2.702000000     4.099000000     4.699000000
O     0.237000000    -5.035000000    -4.918000000
H     1.018000000    -5.288000000    -4.425000000
H    -0.423000000    -4.859000000    -4.248000000
O     4.964000000    -1.915000000    -4.094000000
H     4.100000000    -2.171000000    -3.769000000
H     5.009000000    -2.289000000    -4.974000000
O    -0.977000000     3.760000000    -4.219000000
H    -0.990000000     4.247000000    -5.043000000
H    -0.677000000     2.885000000    -4.462000000
O    -4.263000000    -1.714000000    -6.378000000
H    -4.242000000    -1.241000000    -5.546000000
H    -3.987000000    -1.067000000    -7.028000000
O    -3.270000000    -0.071000000     4.388000000
H    -2.392000000     0.308000000     4.337000000
H    -3.140000000    -1.000000000     4.199000000
O     4.697000000     2.592000000     4.721000000
H     5.041000000     1.770000000     4.372000000
H     3.910000000     2.761000000     4.204000000
O    -0.931000000     1.154000000     4.391000000
H    -0.592000000     0.262000000     4.475000000
H    -0.207000000     1.712000000     4.673000000
O     2.030000000     0.415000000     5.642000000
H     1.867000000     1.248000000     6.084000000
H     1.843000000     0.592000000     4.720000000
O    -4.939000000    -4.587000000    -2.485000000
H    -5.234000000    -5.389000000    -2.052000000
H    -5.655000000    -4.358000000    -3.078000000
O    -2.331000000    -2.951000000    -2.304000000
H    -2.908000000    -3.714000000    -2.328000000
H    -1.739000000    -3.121000000    -1.571000000
O     0.999000000     2.813000000     5.855000000
H     0.491000000     3.601000000     6.048000000
H     1.636000000     3.093000000     5.198000000
O     5.294000000     3.775000000     0.484000000
H     5.016000000     2.942000000     0.864000000
H     4.481000000     4.192000000     0.201000000
O     4.650000000     1.352000000     1.365000000
H     4.955000000     0.874000000     0.594000000
H     4.122000000     0.716000000     1.848000000
O    -6.656000000     0.740000000     0.469000000
H    -5.838000000     0.818000000     0.960000000
H    -7.338000000     0.721000000     1.140000000
O     3.375000000     2.825000000     7.471000000
H     3.021000000     2.852000000     6.582000000
H     4.185000000     2.321000000     7.390000000
