158
-3033.60932
C     1.424000000    -0.231000000    -0.108000000
H     2.435000000    -0.621000000    -0.204000000
C     0.506000000    -0.408000000    -1.108000000
H     0.839000000    -0.823000000    -2.055000000
C    -0.765000000    -0.152000000    -0.891000000
H    -1.425000000    -0.228000000    -1.770000000
C    -1.221000000     0.385000000     0.323000000
H    -2.292000000     0.450000000     0.495000000
C    -0.337000000     0.635000000     1.309000000
H    -0.706000000     0.968000000     2.276000000
C     0.996000000     0.377000000     1.077000000
C     2.040000000     0.645000000     2.218000000
O     3.250000000     0.638000000     1.989000000
O     1.637000000     0.802000000     3.334000000
O    -2.441000000    -0.962000000     6.897000000
H    -3.031000000    -1.705000000     7.021000000
H    -1.972000000    -1.161000000     6.086000000
O    -6.086000000    -0.799000000    -3.546000000
H    -6.231000000    -0.116000000    -4.201000000
H    -5.665000000    -0.345000000    -2.816000000
O    -0.250000000    -2.875000000     0.781000000
H    -0.265000000    -2.027000000     0.338000000
H     0.494000000    -3.335000000     0.392000000
O     0.518000000     3.329000000     3.081000000
H     1.225000000     2.728000000     3.315000000
H     0.588000000     3.423000000     2.131000000
O    -1.516000000     2.671000000     4.904000000
H    -2.213000000     2.792000000     4.260000000
H    -0.723000000     2.967000000     4.456000000
O     1.867000000     1.520000000     5.900000000
H     1.980000000     0.711000000     6.399000000
H     1.892000000     1.241000000     4.984000000
O     4.883000000    -0.272000000     0.355000000
H     4.186000000     0.085000000     0.906000000
H     5.056000000    -1.140000000     0.719000000
O     4.287000000    -0.869000000    -2.832000000
H     4.926000000    -0.331000000    -3.299000000
H     4.405000000    -0.638000000    -1.911000000
O    -0.299000000     2.357000000     7.548000000
H    -0.665000000     2.228000000     6.673000000
H     0.561000000     2.748000000     7.392000000
O     5.328000000    -3.376000000    -2.673000000
H     5.000000000    -2.485000000    -2.554000000
H     4.582000000    -3.937000000    -2.462000000
O     4.000000000     5.059000000     2.752000000
H     4.609000000     4.413000000     3.109000000
H     3.572000000     5.435000000     3.521000000
O     1.471000000    -3.182000000    -3.703000000
H     1.663000000    -2.426000000    -4.257000000
H     0.525000000    -3.140000000    -3.560000000
O    -0.513000000    -0.532000000     4.798000000
H    -0.018000000     0.002000000     4.177000000
H     0.153000000    -1.041000000     5.261000000
O    -4.456000000     0.673000000     4.712000000
H    -4.492000000     0.931000000     5.634000000
H    -4.786000000     1.437000000     4.238000000
O    -3.103000000    -1.401000000     3.463000000
H    -2.173000000    -1.176000000     3.483000000
H    -3.521000000    -0.741000000     4.016000000
O    -3.179000000    -2.050000000    -2.767000000
H    -3.921000000    -2.325000000    -2.229000000
H    -3.389000000    -1.153000000    -3.024000000
O     3.066000000     4.030000000     5.892000000
H     2.404000000     3.340000000     5.848000000
H     3.901000000     3.562000000     5.872000000
O    -1.619000000     4.511000000    -3.135000000
H    -0.695000000     4.741000000    -3.042000000
H    -1.972000000     5.173000000    -3.729000000
O    -5.976000000     0.778000000     1.021000000
H    -5.545000000     0.087000000     0.518000000
H    -6.879000000     0.476000000     1.119000000
O    -0.327000000     5.985000000     3.470000000
H    -0.301000000     6.344000000     2.583000000
H    -0.088000000     5.064000000     3.362000000
O    -1.341000000    -3.878000000    -3.587000000
H    -1.973000000    -3.379000000    -3.070000000
H    -1.353000000    -4.753000000    -3.199000000
O    -4.857000000    -3.770000000    -1.648000000
H    -5.336000000    -4.085000000    -2.415000000
H    -4.751000000    -4.546000000    -1.098000000
O    -2.892000000     1.240000000    -4.359000000
H    -2.953000000     2.094000000    -3.932000000
H    -1.954000000     1.050000000    -4.382000000
O     1.165000000    -1.609000000     6.820000000
H     0.956000000    -2.540000000     6.900000000
H     1.058000000    -1.263000000     7.706000000
O     2.313000000    -0.736000000    -4.837000000
H     2.727000000    -0.664000000    -5.697000000
H     3.034000000    -0.644000000    -4.215000000
O    -1.540000000     4.433000000     0.364000000
H    -0.591000000     4.308000000     0.339000000
H    -1.656000000     5.383000000     0.371000000
O    -4.545000000    -1.205000000     0.115000000
H    -4.887000000    -2.060000000    -0.145000000
H    -3.773000000    -1.406000000     0.644000000
O     7.501000000     0.728000000     0.122000000
H     6.572000000     0.654000000     0.340000000
H     7.595000000     0.245000000    -0.698000000
O     2.472000000    -2.013000000     4.658000000
H     2.062000000    -1.718000000     5.471000000
H     2.509000000    -1.230000000     4.110000000
O    -3.644000000    -0.265000000    -6.762000000
H    -4.545000000    -0.501000000    -6.541000000
H    -3.206000000    -0.175000000    -5.916000000
O    -3.087000000     3.044000000     2.734000000
H    -2.565000000     3.390000000     2.010000000
H    -3.925000000     2.811000000     2.335000000
O    -5.772000000     1.431000000    -1.848000000
H    -5.911000000     1.474000000    -0.902000000
H    -4.965000000     1.924000000    -1.994000000
O     1.305000000     4.229000000     0.650000000
H     1.268000000     5.019000000     1.190000000
H     1.949000000     4.431000000    -0.028000000
O    -3.337000000     3.197000000    -1.538000000
H    -2.848000000     3.424000000    -0.747000000
H    -2.767000000     3.466000000    -2.258000000
O    -2.691000000    -3.515000000     1.982000000
H    -1.832000000    -3.300000000     1.618000000
H    -2.891000000    -2.787000000     2.570000000
O     2.921000000    -4.350000000    -1.779000000
H     2.295000000    -5.002000000    -1.464000000
H     2.470000000    -3.917000000    -2.504000000
O     0.069000000     0.964000000    -4.707000000
H     0.614000000     1.656000000    -5.082000000
H     0.661000000     0.217000000    -4.616000000
O     6.612000000    -2.196000000     3.278000000
H     6.306000000    -1.322000000     3.520000000
H     7.547000000    -2.188000000     3.483000000
O    -3.750000000    -5.539000000     0.309000000
H    -3.055000000    -6.196000000     0.274000000
H    -3.404000000    -4.856000000     0.885000000
O    -1.122000000    -4.113000000    -6.117000000
H    -1.740000000    -3.533000000    -6.560000000
H    -1.195000000    -3.879000000    -5.191000000
O     5.005000000     2.780000000     0.379000000
H     4.684000000     3.573000000     0.808000000
H     4.615000000     2.062000000     0.879000000
O     1.881000000    -4.069000000     2.743000000
H     2.266000000    -3.494000000     3.404000000
H     1.109000000    -3.595000000     2.433000000
O     4.479000000    -3.399000000     0.370000000
H     3.910000000    -3.511000000    -0.392000000
H     4.094000000    -3.962000000     1.041000000
O     5.451000000    -1.218000000     6.546000000
H     5.864000000    -0.572000000     7.118000000
H     5.173000000    -0.717000000     5.779000000
O     4.932000000     0.073000000     4.176000000
H     4.235000000    -0.023000000     3.526000000
H     5.086000000     1.016000000     4.225000000
O     5.674000000     2.950000000     3.334000000
H     6.545000000     3.002000000     2.942000000
H     5.765000000     3.388000000     4.180000000
O     3.587000000     3.155000000    -3.497000000
H     4.231000000     3.563000000    -2.918000000
H     2.827000000     2.997000000    -2.936000000
O     1.657000000     2.200000000    -2.102000000
H     0.887000000     2.217000000    -2.670000000
H     1.317000000     1.941000000    -1.245000000
