158
-3023.53144
C     1.170000000    -0.740000000     0.559000000
H     1.908000000    -1.440000000     0.943000000
C     0.562000000    -0.929000000    -0.697000000
H     0.857000000    -1.719000000    -1.383000000
C    -0.414000000    -0.120000000    -1.169000000
H    -0.911000000    -0.236000000    -2.145000000
C    -0.918000000     0.833000000    -0.321000000
H    -1.698000000     1.512000000    -0.655000000
C    -0.410000000     1.059000000     0.946000000
H    -0.806000000     1.811000000     1.624000000
C     0.650000000     0.287000000     1.381000000
C     1.296000000     0.499000000     2.731000000
O     2.312000000    -0.080000000     3.058000000
O     0.842000000     1.262000000     3.545000000
O    -4.038000000     0.048000000    -0.748000000
H    -4.341000000     0.944000000    -0.900000000
H    -4.709000000    -0.503000000    -1.150000000
O     1.091000000    -4.449000000     0.997000000
H     1.355000000    -4.151000000     1.868000000
H     1.374000000    -3.749000000     0.409000000
O     1.259000000     3.833000000     2.590000000
H     0.342000000     4.102000000     2.544000000
H     1.227000000     2.919000000     2.873000000
O    -1.260000000     0.895000000     4.955000000
H    -0.540000000     1.138000000     4.374000000
H    -1.048000000     0.006000000     5.241000000
O     2.294000000    -6.482000000    -1.129000000
H     2.017000000    -5.566000000    -1.151000000
H     1.699000000    -6.898000000    -0.505000000
O     1.421000000     2.021000000    -2.302000000
H     1.148000000     1.381000000    -1.645000000
H     1.860000000     2.707000000    -1.799000000
O     4.978000000    -1.791000000    -0.247000000
H     5.875000000    -1.919000000     0.060000000
H     4.945000000    -0.872000000    -0.514000000
O    -1.543000000     4.613000000     2.053000000
H    -1.730000000     3.893000000     2.656000000
H    -2.405000000     4.939000000     1.795000000
O     4.092000000     1.250000000    -4.082000000
H     3.169000000     1.485000000    -4.169000000
H     4.280000000     0.724000000    -4.860000000
O     4.207000000    -4.271000000     2.413000000
H     4.856000000    -4.394000000     3.105000000
H     3.802000000    -3.427000000     2.612000000
O    -3.803000000     2.318000000    -4.698000000
H    -2.971000000     2.705000000    -4.425000000
H    -4.417000000     2.557000000    -4.004000000
O    -5.650000000    -2.306000000     0.741000000
H    -4.931000000    -2.127000000     1.347000000
H    -5.520000000    -1.685000000     0.024000000
O    -1.270000000    -2.184000000     2.553000000
H    -0.419000000    -2.443000000     2.908000000
H    -1.647000000    -2.998000000     2.218000000
O    -1.181000000    -1.422000000    -7.053000000
H    -1.148000000    -0.626000000    -6.522000000
H    -1.621000000    -2.064000000    -6.496000000
O     4.722000000    -0.568000000     6.289000000
H     3.984000000    -0.029000000     6.005000000
H     4.442000000    -0.936000000     7.126000000
O    -3.910000000    -1.282000000    -3.751000000
H    -3.150000000    -1.759000000    -4.086000000
H    -3.855000000    -1.381000000    -2.801000000
O     1.158000000     2.034000000     8.568000000
H     1.466000000     2.130000000     7.667000000
H     1.955000000     2.061000000     9.098000000
O     1.557000000     5.887000000     5.511000000
H     1.124000000     5.097000000     5.835000000
H     2.132000000     5.576000000     4.812000000
O     1.227000000    -2.677000000     3.558000000
H     1.571000000    -1.800000000     3.389000000
H     1.315000000    -2.790000000     4.504000000
O     5.139000000     2.666000000     0.771000000
H     5.267000000     2.367000000    -0.129000000
H     4.988000000     3.608000000     0.692000000
O    -0.927000000    -4.561000000    -3.123000000
H    -1.090000000    -3.712000000    -2.711000000
H    -1.635000000    -4.659000000    -3.759000000
O    -2.888000000    -3.013000000    -1.603000000
H    -2.655000000    -3.466000000    -0.792000000
H    -3.829000000    -3.160000000    -1.698000000
O    -2.555000000     3.060000000     4.292000000
H    -3.183000000     2.945000000     3.578000000
H    -2.310000000     2.168000000     4.541000000
O     1.113000000     2.340000000    -5.210000000
H     1.739000000     2.970000000    -5.567000000
H     1.280000000     2.345000000    -4.267000000
O     4.855000000     0.468000000     2.602000000
H     4.898000000     1.207000000     1.995000000
H     3.920000000     0.349000000     2.770000000
O    -2.623000000    -3.513000000    -5.489000000
H    -1.950000000    -4.075000000    -5.873000000
H    -3.449000000    -3.939000000    -5.717000000
O    -6.108000000    -0.224000000    -4.951000000
H    -6.549000000    -0.831000000    -5.545000000
H    -5.464000000    -0.763000000    -4.492000000
O    -4.989000000     2.874000000    -1.001000000
H    -5.745000000     3.369000000    -1.314000000
H    -4.318000000     3.537000000    -0.839000000
O     4.820000000     0.780000000    -1.507000000
H     5.107000000     0.765000000    -2.420000000
H     4.044000000     1.340000000    -1.510000000
O     4.488000000    -1.925000000     3.833000000
H     4.537000000    -1.664000000     4.753000000
H     4.403000000    -1.101000000     3.354000000
O    -6.566000000    -0.902000000    -1.409000000
H    -6.979000000    -1.765000000    -1.421000000
H    -7.197000000    -0.328000000    -1.845000000
O     4.937000000    -5.513000000    -0.484000000
H     4.186000000    -5.928000000    -0.907000000
H     4.578000000    -4.722000000    -0.081000000
O     4.390000000    -3.487000000    -4.325000000
H     3.507000000    -3.782000000    -4.107000000
H     4.586000000    -3.913000000    -5.159000000
O     2.380000000     3.802000000    -0.161000000
H     1.944000000     3.784000000     0.691000000
H     3.214000000     4.240000000     0.006000000
O     2.750000000    -3.452000000    -0.897000000
H     3.480000000    -2.834000000    -0.856000000
H     2.410000000    -3.363000000    -1.788000000
O    -3.534000000    -0.840000000     1.881000000
H    -3.734000000    -0.532000000     0.996000000
H    -2.584000000    -0.956000000     1.885000000
O    -1.609000000     3.518000000    -3.729000000
H    -0.973000000     2.954000000    -4.170000000
H    -1.097000000     4.269000000    -3.431000000
O     1.189000000    -0.734000000    -4.343000000
H     0.604000000    -0.023000000    -4.605000000
H     0.844000000    -1.030000000    -3.501000000
O     2.792000000    -1.650000000    -6.256000000
H     2.229000000    -1.335000000    -5.549000000
H     3.601000000    -1.915000000    -5.818000000
O     1.699000000    -4.802000000    -3.697000000
H     1.627000000    -5.065000000    -4.615000000
H     0.804000000    -4.857000000    -3.362000000
O     0.574000000    -1.565000000     6.314000000
H     0.525000000    -1.115000000     7.158000000
H     0.190000000    -2.426000000     6.479000000
O     2.289000000     0.743000000     5.733000000
H     1.968000000    -0.059000000     6.146000000
H     1.681000000     0.900000000     5.010000000
O    -1.638000000    -4.685000000     1.551000000
H    -0.712000000    -4.705000000     1.311000000
H    -1.759000000    -5.458000000     2.101000000
O    -3.108000000     4.760000000    -0.624000000
H    -2.998000000     5.696000000    -0.789000000
H    -2.402000000     4.345000000    -1.121000000
O    -4.216000000     2.758000000     1.956000000
H    -4.530000000     3.659000000     1.883000000
H    -4.057000000     2.486000000     1.052000000
O     6.891000000     0.096000000     4.633000000
H     6.092000000    -0.166000000     5.090000000
H     6.581000000     0.547000000     3.848000000
O    -1.687000000     1.090000000    -6.285000000
H    -1.848000000     1.573000000    -7.095000000
H    -2.504000000     1.169000000    -5.793000000
O     3.609000000     3.229000000     4.628000000
H     3.527000000     2.347000000     4.992000000
H     3.329000000     3.140000000     3.718000000
