158
-3026.55581
C     1.379000000    -0.452000000    -0.312000000
H     2.390000000    -0.620000000    -0.675000000
C     0.384000000    -0.191000000    -1.226000000
H     0.618000000    -0.143000000    -2.286000000
C    -0.897000000     0.139000000    -0.842000000
H    -1.564000000     0.405000000    -1.620000000
C    -1.242000000     0.164000000     0.515000000
H    -2.271000000     0.266000000     0.851000000
C    -0.290000000    -0.129000000     1.514000000
H    -0.477000000    -0.092000000     2.584000000
C     1.062000000    -0.424000000     1.083000000
C     2.172000000    -0.505000000     2.141000000
O     3.283000000    -0.758000000     1.804000000
O     1.979000000    -0.092000000     3.256000000
O     6.749000000     0.145000000     1.995000000
H     6.064000000    -0.047000000     2.636000000
H     7.567000000     0.048000000     2.483000000
O    -4.258000000    -1.663000000    -5.534000000
H    -4.811000000    -1.086000000    -5.008000000
H    -3.454000000    -1.757000000    -5.023000000
O     0.941000000    -4.672000000     0.046000000
H     1.441000000    -4.656000000     0.862000000
H     0.227000000    -4.051000000     0.191000000
O    -3.398000000     2.765000000     1.580000000
H    -2.840000000     2.351000000     2.238000000
H    -3.561000000     3.644000000     1.923000000
O     5.137000000    -4.255000000     4.566000000
H     4.377000000    -4.820000000     4.709000000
H     5.028000000    -3.928000000     3.673000000
O     1.657000000     2.479000000     3.130000000
H     1.764000000     1.529000000     3.171000000
H     2.532000000     2.826000000     3.302000000
O     0.896000000     1.467000000     6.713000000
H     0.258000000     1.801000000     6.082000000
H     0.829000000     0.515000000     6.638000000
O     1.462000000    -0.903000000     5.511000000
H     2.210000000    -1.498000000     5.565000000
H     1.556000000    -0.477000000     4.659000000
O     3.898000000    -3.516000000    -0.391000000
H     3.814000000    -2.723000000    -0.919000000
H     3.447000000    -4.191000000    -0.898000000
O     5.490000000    -1.440000000    -1.858000000
H     6.222000000    -1.758000000    -1.329000000
H     5.269000000    -0.592000000    -1.474000000
O    -1.611000000    -0.927000000    -7.637000000
H    -1.699000000    -0.950000000    -6.684000000
H    -0.677000000    -0.786000000    -7.788000000
O    -1.066000000    -0.988000000     6.495000000
H    -0.220000000    -1.287000000     6.160000000
H    -1.004000000    -1.108000000     7.443000000
O    -3.293000000    -1.895000000     1.901000000
H    -3.224000000    -1.011000000     2.261000000
H    -4.003000000    -1.838000000     1.261000000
O    -1.262000000    -2.669000000     4.049000000
H    -1.331000000    -2.049000000     4.776000000
H    -1.881000000    -2.343000000     3.397000000
O    -4.376000000     2.929000000    -3.523000000
H    -4.283000000     3.432000000    -2.714000000
H    -4.820000000     3.525000000    -4.127000000
O    -4.311000000     3.950000000    -1.126000000
H    -3.564000000     4.318000000    -0.653000000
H    -4.495000000     3.125000000    -0.677000000
O    -5.270000000    -1.407000000    -0.338000000
H    -4.917000000    -2.082000000    -0.918000000
H    -6.164000000    -1.267000000    -0.648000000
O     2.082000000     3.904000000     6.164000000
H     1.213000000     4.286000000     6.037000000
H     1.926000000     2.961000000     6.201000000
O    -0.971000000    -3.005000000     0.009000000
H    -0.714000000    -2.138000000    -0.306000000
H    -1.764000000    -2.848000000     0.522000000
O    -1.601000000    -0.450000000    -4.890000000
H    -1.799000000    -0.501000000    -3.955000000
H    -0.729000000    -0.058000000    -4.930000000
O     4.444000000     1.207000000     7.146000000
H     5.064000000     0.481000000     7.214000000
H     3.997000000     1.063000000     6.312000000
O     3.890000000     0.298000000    -4.561000000
H     4.124000000    -0.617000000    -4.401000000
H     3.707000000     0.654000000    -3.691000000
O    -0.830000000     2.449000000     4.230000000
H     0.056000000     2.650000000     3.929000000
H    -1.346000000     3.218000000     3.986000000
O    -4.276000000    -3.261000000    -2.124000000
H    -4.899000000    -3.988000000    -2.132000000
H    -3.451000000    -3.650000000    -2.416000000
O     7.766000000    -1.269000000    -0.211000000
H     7.379000000    -1.086000000     0.645000000
H     8.071000000    -2.174000000    -0.147000000
O    -0.955000000     5.224000000    -2.863000000
H    -1.690000000     5.832000000    -2.787000000
H    -0.181000000     5.787000000    -2.894000000
O     4.557000000    -3.137000000     2.207000000
H     4.263000000    -2.233000000     2.099000000
H     4.350000000    -3.558000000     1.373000000
O    -3.112000000     0.504000000     3.452000000
H    -3.872000000     1.076000000     3.558000000
H    -2.560000000     0.697000000     4.209000000
O    -4.747000000     0.287000000    -3.619000000
H    -5.106000000     0.015000000    -2.775000000
H    -4.528000000     1.211000000    -3.499000000
O     0.335000000     2.395000000    -6.464000000
H     0.764000000     1.565000000    -6.254000000
H    -0.539000000     2.316000000    -6.083000000
O    -1.881000000    -4.178000000    -2.866000000
H    -1.460000000    -4.641000000    -3.590000000
H    -1.272000000    -4.274000000    -2.133000000
O    -5.206000000     1.523000000     0.142000000
H    -4.519000000     2.005000000     0.602000000
H    -5.042000000     0.606000000     0.361000000
O     0.575000000     3.077000000    -2.385000000
H     0.528000000     2.908000000    -1.444000000
H     0.142000000     3.924000000    -2.498000000
O     0.314000000    -3.011000000    -4.973000000
H     1.002000000    -3.665000000    -4.859000000
H    -0.251000000    -3.374000000    -5.655000000
O     1.100000000    -0.327000000    -5.657000000
H     0.929000000    -1.221000000    -5.359000000
H     1.876000000    -0.405000000    -6.212000000
O     7.232000000    -3.723000000     1.424000000
H     6.360000000    -3.556000000     1.782000000
H     7.831000000    -3.329000000     2.058000000
O     4.413000000     3.324000000     2.862000000
H     4.803000000     3.798000000     3.597000000
H     4.148000000     4.010000000     2.249000000
O    -1.889000000     2.556000000    -4.550000000
H    -2.746000000     2.578000000    -4.124000000
H    -1.262000000     2.626000000    -3.830000000
O     6.869000000     2.236000000     4.688000000
H     7.591000000     1.609000000     4.741000000
H     6.110000000     1.707000000     4.443000000
O     4.650000000     1.225000000     0.489000000
H     5.450000000     0.953000000     0.939000000
H     3.951000000     0.739000000     0.927000000
O     1.765000000    -3.566000000     3.600000000
H     0.901000000    -3.184000000     3.753000000
H     2.285000000    -2.848000000     3.240000000
O     1.833000000     4.365000000    -5.013000000
H     1.169000000     3.746000000    -5.317000000
H     1.396000000     4.866000000    -4.325000000
O     2.460000000    -5.469000000    -2.121000000
H     2.291000000    -6.407000000    -2.032000000
H     2.015000000    -5.073000000    -1.372000000
O     3.779000000    -2.112000000     5.797000000
H     4.121000000    -2.821000000     5.252000000
H     4.528000000    -1.831000000     6.323000000
O     4.519000000     0.752000000     4.075000000
H     3.738000000     0.238000000     3.869000000
H     4.440000000     1.536000000     3.532000000
O     2.259000000     5.038000000     1.994000000
H     1.939000000     5.158000000     1.099000000
H     1.690000000     4.362000000     2.362000000
O     3.193000000     1.832000000    -2.107000000
H     3.386000000     1.553000000    -1.212000000
H     2.259000000     2.044000000    -2.095000000
O     0.619000000     2.816000000     0.347000000
H     0.079000000     3.509000000     0.727000000
H     0.201000000     2.003000000     0.630000000
