158
-3037.65439
C     1.362000000    -0.174000000     0.373000000
H     2.357000000    -0.569000000     0.560000000
C     0.713000000    -0.793000000    -0.675000000
H     1.179000000    -1.586000000    -1.253000000
C    -0.556000000    -0.361000000    -1.020000000
H    -1.058000000    -0.806000000    -1.880000000
C    -1.177000000     0.617000000    -0.288000000
H    -2.204000000     0.908000000    -0.498000000
C    -0.592000000     1.049000000     0.923000000
H    -1.173000000     1.653000000     1.615000000
C     0.728000000     0.627000000     1.269000000
C     1.432000000     1.003000000     2.536000000
O     2.401000000     0.424000000     2.877000000
O     1.063000000     1.997000000     3.145000000
O     6.560000000    -0.360000000     2.131000000
H     6.852000000    -0.749000000     2.955000000
H     7.238000000     0.279000000     1.914000000
O    -4.773000000    -2.248000000    -4.074000000
H    -4.947000000    -1.802000000    -3.245000000
H    -4.837000000    -3.179000000    -3.862000000
O     0.005000000    -5.253000000     1.312000000
H     0.648000000    -5.605000000     1.927000000
H    -0.066000000    -4.327000000     1.544000000
O    -1.678000000     4.377000000     2.302000000
H    -2.219000000     4.706000000     3.020000000
H    -0.781000000     4.589000000     2.561000000
O     4.040000000    -4.410000000     4.255000000
H     3.550000000    -3.702000000     3.836000000
H     4.925000000    -4.332000000     3.899000000
O     0.905000000     4.787000000     2.842000000
H     0.928000000     3.831000000     2.877000000
H     1.820000000     5.052000000     2.938000000
O    -0.466000000     1.659000000     7.448000000
H    -0.578000000     2.216000000     6.678000000
H     0.179000000     1.005000000     7.179000000
O     1.446000000    -0.012000000     6.418000000
H     2.302000000    -0.306000000     6.729000000
H     1.334000000    -0.451000000     5.574000000
O     3.560000000    -2.923000000     0.502000000
H     4.496000000    -2.829000000     0.325000000
H     3.259000000    -3.570000000    -0.136000000
O     5.903000000     0.437000000    -2.921000000
H     5.687000000    -0.429000000    -2.575000000
H     5.401000000     1.044000000    -2.377000000
O     4.995000000     3.933000000     1.278000000
H     4.512000000     3.174000000     0.951000000
H     5.868000000     3.845000000     0.894000000
O    -2.365000000    -3.156000000    -6.782000000
H    -1.761000000    -2.430000000    -6.623000000
H    -3.011000000    -2.800000000    -7.392000000
O    -0.532000000    -0.995000000    -7.144000000
H     0.367000000    -1.290000000    -6.997000000
H    -0.511000000    -0.583000000    -8.007000000
O     2.912000000    -3.098000000    -2.944000000
H     3.377000000    -3.483000000    -3.687000000
H     3.183000000    -3.626000000    -2.192000000
O    -2.095000000    -0.435000000     5.345000000
H    -2.258000000     0.508000000     5.347000000
H    -1.511000000    -0.579000000     6.090000000
O    -2.521000000    -0.838000000     2.594000000
H    -2.291000000    -0.685000000     3.510000000
H    -3.170000000    -1.541000000     2.624000000
O    -4.388000000    -0.050000000     0.571000000
H    -3.440000000    -0.176000000     0.542000000
H    -4.683000000    -0.612000000     1.288000000
O     0.718000000     5.375000000     5.562000000
H     0.517000000     4.466000000     5.339000000
H    -0.101000000     5.846000000     5.409000000
O    -0.342000000    -2.486000000     1.683000000
H     0.094000000    -2.069000000     0.940000000
H    -1.102000000    -1.932000000     1.858000000
O    -3.366000000    -5.959000000     0.431000000
H    -2.937000000    -5.215000000     0.008000000
H    -3.812000000    -5.580000000     1.188000000
O    -3.378000000     0.369000000    -3.893000000
H    -4.304000000     0.255000000    -3.676000000
H    -3.066000000    -0.516000000    -4.083000000
O     2.829000000     1.923000000    -4.342000000
H     3.211000000     1.050000000    -4.243000000
H     2.537000000     2.158000000    -3.462000000
O    -0.396000000     3.028000000     4.992000000
H     0.170000000     2.556000000     4.381000000
H    -1.285000000     2.786000000     4.731000000
O     6.944000000    -1.627000000     4.548000000
H     7.565000000    -1.761000000     5.264000000
H     6.429000000    -0.866000000     4.816000000
O    -6.398000000    -4.084000000    -1.996000000
H    -5.862000000    -4.619000000    -2.582000000
H    -5.956000000    -3.236000000    -1.976000000
O     6.368000000    -2.339000000    -0.053000000
H     6.294000000    -1.634000000     0.590000000
H     6.834000000    -3.037000000     0.408000000
O     2.681000000    -2.422000000     3.321000000
H     2.761000000    -1.469000000     3.358000000
H     2.768000000    -2.634000000     2.392000000
O    -2.833000000     2.232000000     4.808000000
H    -3.140000000     2.648000000     4.003000000
H    -3.324000000     2.666000000     5.505000000
O    -5.743000000    -1.222000000    -1.914000000
H    -5.377000000    -0.900000000    -1.090000000
H    -6.691000000    -1.162000000    -1.794000000
O     0.754000000     3.693000000    -5.262000000
H     1.603000000     3.373000000    -4.959000000
H     0.119000000     3.080000000    -4.891000000
O    -2.236000000    -4.084000000    -1.170000000
H    -2.871000000    -3.894000000    -1.861000000
H    -1.388000000    -3.863000000    -1.557000000
O    -4.070000000     2.543000000     1.932000000
H    -3.213000000     2.767000000     1.570000000
H    -4.378000000     1.819000000     1.387000000
O    -2.294000000     4.128000000    -2.171000000
H    -1.629000000     4.358000000    -1.522000000
H    -3.062000000     4.641000000    -1.919000000
O    -0.129000000    -3.217000000    -3.082000000
H     0.710000000    -3.123000000    -2.631000000
H     0.006000000    -2.797000000    -3.931000000
O     3.450000000    -0.794000000    -4.727000000
H     3.129000000    -1.126000000    -3.889000000
H     3.079000000    -1.389000000    -5.379000000
O     3.526000000     5.794000000     2.715000000
H     3.868000000     6.008000000     3.583000000
H     4.042000000     5.038000000     2.434000000
O    -1.458000000     2.589000000    -4.297000000
H    -1.852000000     1.722000000    -4.392000000
H    -1.889000000     2.965000000    -3.529000000
O    -1.863000000    -5.478000000    -3.603000000
H    -1.186000000    -4.888000000    -3.271000000
H    -1.472000000    -6.350000000    -3.540000000
O     0.005000000     4.426000000    -0.280000000
H    -0.405000000     4.521000000     0.580000000
H     0.183000000     5.323000000    -0.561000000
O     5.911000000     0.788000000     5.142000000
H     6.379000000     1.618000000     5.233000000
H     5.041000000     1.037000000     4.830000000
O     4.243000000     1.243000000     1.183000000
H     5.059000000     0.843000000     1.482000000
H     3.622000000     1.081000000     1.893000000
O     0.396000000    -3.472000000     4.249000000
H     0.103000000    -3.332000000     3.349000000
H     1.341000000    -3.325000000     4.219000000
O     2.122000000    -5.042000000    -0.783000000
H     2.521000000    -5.866000000    -1.061000000
H     1.492000000    -5.295000000    -0.108000000
O     3.887000000    -0.821000000     7.067000000
H     4.381000000    -1.640000000     7.044000000
H     4.557000000    -0.139000000     7.121000000
O     3.441000000     2.221000000     4.850000000
H     3.192000000     2.205000000     3.926000000
H     2.737000000     1.751000000     5.296000000
O    -4.586000000    -4.880000000    -3.879000000
H    -3.741000000    -5.324000000    -3.950000000
H    -5.128000000    -5.289000000    -4.554000000
O     4.162000000     1.809000000    -1.483000000
H     4.145000000     1.528000000    -0.568000000
H     3.331000000     2.268000000    -1.608000000
O     1.529000000     2.660000000    -1.646000000
H     0.977000000     3.239000000    -1.119000000
H     1.381000000     1.789000000    -1.278000000
