158
-3018.55568
C     1.423000000     0.397000000    -0.115000000
H     2.465000000     0.708000000    -0.136000000
C     0.382000000     1.254000000     0.295000000
H     0.633000000     2.277000000     0.563000000
C    -0.941000000     0.749000000     0.321000000
H    -1.773000000     1.376000000     0.632000000
C    -1.226000000    -0.586000000     0.036000000
H    -2.252000000    -0.926000000     0.158000000
C    -0.172000000    -1.386000000    -0.363000000
H    -0.275000000    -2.452000000    -0.545000000
C     1.157000000    -0.920000000    -0.568000000
C     2.263000000    -1.890000000    -0.961000000
O     1.885000000    -2.976000000    -1.325000000
O     3.459000000    -1.666000000    -1.010000000
O     3.418000000    -7.896000000    -2.976000000
H     3.359000000    -6.942000000    -2.931000000
H     2.803000000    -8.143000000    -3.667000000
O    -1.645000000    -1.158000000    -3.771000000
H    -2.280000000    -1.291000000    -4.475000000
H    -1.264000000    -2.023000000    -3.625000000
O     2.407000000     4.317000000    -0.720000000
H     2.254000000     4.741000000     0.124000000
H     3.359000000     4.237000000    -0.780000000
O    -6.246000000     0.708000000    -1.881000000
H    -6.565000000    -0.153000000    -2.149000000
H    -5.621000000     0.956000000    -2.562000000
O    -4.567000000     1.446000000     0.447000000
H    -5.096000000     1.411000000    -0.349000000
H    -5.169000000     1.194000000     1.147000000
O     2.148000000    -4.681000000    -5.681000000
H     2.772000000    -4.274000000    -5.081000000
H     2.516000000    -4.525000000    -6.551000000
O     3.708000000     2.878000000     3.940000000
H     4.159000000     2.036000000     3.870000000
H     4.140000000     3.435000000     3.292000000
O     3.264000000    -0.045000000    -5.072000000
H     2.406000000     0.201000000    -5.419000000
H     3.135000000    -0.924000000    -4.716000000
O    -3.374000000     2.294000000     3.331000000
H    -3.464000000     3.190000000     3.006000000
H    -3.329000000     1.756000000     2.541000000
O     0.408000000    -5.193000000    -0.334000000
H     0.144000000    -4.746000000     0.470000000
H     0.797000000    -4.504000000    -0.874000000
O    -0.348000000     4.791000000    -2.440000000
H     0.423000000     4.247000000    -2.599000000
H    -0.518000000     4.697000000    -1.502000000
O     0.617000000     0.551000000     5.210000000
H     0.000000000     1.261000000     5.388000000
H     0.234000000     0.082000000     4.469000000
O    -6.398000000     0.694000000     2.273000000
H    -6.728000000    -0.182000000     2.471000000
H    -6.777000000     1.251000000     2.953000000
O     1.831000000    -8.025000000    -0.378000000
H     2.089000000    -8.011000000    -1.299000000
H     1.645000000    -7.110000000    -0.167000000
O    -0.325000000    -3.767000000     2.093000000
H    -0.565000000    -2.881000000     2.363000000
H    -1.137000000    -4.269000000     2.169000000
O    -1.117000000     4.780000000     4.095000000
H    -1.461000000     4.906000000     4.979000000
H    -0.197000000     4.550000000     4.225000000
O    -3.503000000     3.738000000    -0.164000000
H    -3.510000000     3.604000000    -1.112000000
H    -3.665000000     2.869000000     0.203000000
O    -3.290000000     6.732000000    -1.741000000
H    -2.374000000     6.515000000    -1.565000000
H    -3.773000000     5.939000000    -1.507000000
O     3.261000000    -2.385000000    -3.975000000
H     4.187000000    -2.542000000    -3.790000000
H     2.831000000    -2.459000000    -3.123000000
O    -1.476000000     5.366000000     0.265000000
H    -1.240000000     5.305000000     1.191000000
H    -2.265000000     4.829000000     0.183000000
O     2.270000000    -3.623000000     2.456000000
H     1.329000000    -3.561000000     2.624000000
H     2.335000000    -4.138000000     1.652000000
O    -2.972000000    -2.090000000     3.025000000
H    -3.494000000    -2.684000000     2.486000000
H    -3.598000000    -1.712000000     3.642000000
O     0.291000000    -0.797000000     2.982000000
H    -0.443000000    -0.312000000     2.605000000
H     0.905000000    -0.904000000     2.255000000
O     6.155000000     2.134000000    -1.011000000
H     5.706000000     2.974000000    -1.108000000
H     6.454000000     1.919000000    -1.895000000
O    -3.683000000     3.095000000    -2.748000000
H    -3.470000000     3.657000000    -3.493000000
H    -3.882000000     2.244000000    -3.139000000
O    -1.818000000     1.962000000     5.737000000
H    -2.317000000     1.853000000     4.927000000
H    -1.822000000     2.906000000     5.895000000
O     3.719000000    -1.302000000     2.309000000
H     3.195000000    -2.102000000     2.282000000
H     4.326000000    -1.388000000     1.574000000
O     3.046000000     6.220000000     1.492000000
H     3.655000000     6.843000000     1.095000000
H     2.182000000     6.510000000     1.197000000
O    -0.299000000     0.955000000    -2.617000000
H    -0.756000000     0.149000000    -2.860000000
H    -0.168000000     0.880000000    -1.672000000
O     1.871000000     2.590000000    -2.948000000
H     1.326000000     1.803000000    -2.945000000
H     1.985000000     2.806000000    -2.023000000
O     5.451000000    -3.882000000     3.046000000
H     6.184000000    -4.431000000     2.768000000
H     4.984000000    -3.679000000     2.236000000
O     6.032000000    -0.471000000    -4.476000000
H     5.139000000    -0.142000000    -4.579000000
H     5.960000000    -1.153000000    -3.808000000
O     5.467000000    -0.719000000     0.101000000
H     4.781000000    -1.081000000    -0.459000000
H     5.658000000     0.139000000    -0.278000000
O     6.183000000    -3.495000000    -3.231000000
H     6.577000000    -3.846000000    -2.432000000
H     6.920000000    -3.377000000    -3.830000000
O     0.787000000     7.067000000     0.322000000
H    -0.028000000     6.567000000     0.284000000
H     0.851000000     7.486000000    -0.536000000
O     3.498000000    -4.906000000    -2.454000000
H     4.290000000    -4.386000000    -2.590000000
H     2.962000000    -4.376000000    -1.864000000
O    -3.886000000     5.318000000     3.280000000
H    -2.997000000     5.672000000     3.280000000
H    -4.296000000     5.699000000     2.503000000
O     1.594000000     4.668000000     4.098000000
H     2.356000000     4.094000000     4.177000000
H     1.853000000     5.323000000     3.449000000
O     7.685000000    -1.725000000    -1.379000000
H     7.537000000    -2.656000000    -1.211000000
H     7.083000000    -1.276000000    -0.786000000
O     5.106000000     3.435000000     1.784000000
H     5.516000000     2.919000000     1.090000000
H     5.527000000     4.293000000     1.725000000
O     4.437000000    -3.878000000     0.514000000
H     4.981000000    -4.505000000     0.038000000
H     4.330000000    -3.145000000    -0.092000000
O     0.078000000    -3.542000000    -3.516000000
H     0.505000000    -4.026000000    -4.222000000
H     0.701000000    -3.578000000    -2.789000000
O    -5.418000000    -3.077000000     1.358000000
H    -5.150000000    -3.626000000     2.095000000
H    -6.356000000    -2.938000000     1.492000000
O    -5.301000000     1.188000000     5.566000000
H    -4.850000000     1.638000000     4.852000000
H    -5.324000000     1.828000000     6.277000000
O     5.251000000     0.740000000     3.511000000
H     4.687000000     0.044000000     3.174000000
H     5.652000000     0.365000000     4.295000000
O    -4.501000000    -2.599000000    -1.118000000
H    -4.892000000    -2.712000000    -0.252000000
H    -3.789000000    -1.975000000    -0.980000000
O    -2.810000000    -4.878000000     1.522000000
H    -3.475000000    -4.977000000     2.203000000
H    -2.838000000    -5.702000000     1.037000000
O    -2.286000000    -5.419000000    -2.051000000
H    -2.885000000    -4.676000000    -2.118000000
H    -1.420000000    -5.022000000    -1.961000000
