158
-3041.44836
C     0.254000000    -0.966000000     1.092000000
H     0.496000000    -1.759000000     1.796000000
C    -0.482000000    -1.230000000    -0.024000000
H    -0.847000000    -2.238000000    -0.206000000
C    -0.673000000    -0.202000000    -0.989000000
H    -1.159000000    -0.372000000    -1.886000000
C    -0.283000000     1.108000000    -0.729000000
H    -0.539000000     1.894000000    -1.435000000
C     0.600000000     1.271000000     0.383000000
H     1.039000000     2.261000000     0.482000000
C     0.832000000     0.278000000     1.326000000
C     1.712000000     0.511000000     2.510000000
O     1.575000000    -0.081000000     3.593000000
O     2.565000000     1.389000000     2.330000000
O     0.363000000    -5.650000000     1.583000000
H    -0.269000000    -6.341000000     1.382000000
H    -0.025000000    -5.178000000     2.320000000
O     2.041000000     2.925000000    -2.827000000
H     2.315000000     3.099000000    -3.728000000
H     1.181000000     3.339000000    -2.754000000
O    -4.342000000     0.981000000    -4.048000000
H    -5.035000000     0.466000000    -3.634000000
H    -4.301000000     0.650000000    -4.945000000
O     0.215000000     5.956000000    -2.267000000
H     0.470000000     6.836000000    -2.543000000
H     1.018000000     5.573000000    -1.915000000
O     3.760000000     3.195000000     0.230000000
H     3.898000000     2.461000000    -0.369000000
H     3.289000000     2.814000000     0.971000000
O    -1.591000000     5.505000000    -5.031000000
H    -2.455000000     5.251000000    -5.355000000
H    -1.518000000     5.073000000    -4.179000000
O     5.247000000     1.499000000     5.763000000
H     4.299000000     1.537000000     5.894000000
H     5.585000000     1.117000000     6.573000000
O    -3.279000000    -3.112000000    -3.626000000
H    -3.288000000    -2.353000000    -3.043000000
H    -2.503000000    -2.985000000    -4.172000000
O     2.244000000     6.463000000     1.308000000
H     2.327000000     5.635000000     0.835000000
H     1.315000000     6.684000000     1.244000000
O     0.497000000     0.280000000    -4.353000000
H     0.806000000     0.534000000    -3.483000000
H    -0.370000000     0.678000000    -4.425000000
O    -4.210000000    -5.363000000    -0.550000000
H    -4.693000000    -5.645000000     0.228000000
H    -4.185000000    -4.409000000    -0.482000000
O     0.227000000     0.546000000     7.520000000
H    -0.617000000     0.256000000     7.175000000
H     0.147000000     1.498000000     7.579000000
O    -5.270000000     3.164000000    -1.445000000
H    -4.720000000     3.638000000    -2.069000000
H    -5.059000000     3.553000000    -0.596000000
O     3.169000000     6.145000000     3.832000000
H     2.831000000     6.443000000     2.988000000
H     2.961000000     5.211000000     3.857000000
O     2.700000000    -2.582000000     4.901000000
H     2.461000000    -1.850000000     4.332000000
H     2.174000000    -2.454000000     5.690000000
O     5.537000000    -2.169000000     3.025000000
H     6.494000000    -2.196000000     3.009000000
H     5.328000000    -1.367000000     3.504000000
O    -3.980000000    -1.146000000    -2.075000000
H    -3.962000000    -1.513000000    -1.191000000
H    -4.881000000    -1.279000000    -2.370000000
O     1.690000000    -4.423000000    -4.309000000
H     0.907000000    -3.916000000    -4.092000000
H     2.175000000    -4.479000000    -3.486000000
O     3.421000000     0.928000000    -1.453000000
H     3.004000000     0.121000000    -1.153000000
H     2.734000000     1.386000000    -1.939000000
O     1.297000000    -4.282000000    -1.043000000
H     0.475000000    -4.441000000    -1.507000000
H     1.140000000    -4.608000000    -0.157000000
O     2.503000000     1.420000000     5.584000000
H     2.185000000     0.823000000     4.907000000
H     1.801000000     1.441000000     6.234000000
O    -5.416000000    -4.701000000    -4.111000000
H    -5.738000000    -4.525000000    -4.995000000
H    -4.605000000    -4.196000000    -4.046000000
O    -1.162000000     1.662000000    -6.805000000
H    -1.302000000     1.914000000    -5.892000000
H    -2.044000000     1.574000000    -7.167000000
O    -3.062000000    -3.047000000     2.593000000
H    -2.888000000    -2.132000000     2.816000000
H    -2.598000000    -3.549000000     3.262000000
O     2.629000000    -1.876000000    -1.176000000
H     3.529000000    -2.200000000    -1.188000000
H     2.100000000    -2.645000000    -0.962000000
O    -0.738000000    -4.742000000     4.131000000
H    -0.639000000    -3.800000000     4.264000000
H     0.024000000    -5.127000000     4.563000000
O    -3.188000000     2.696000000     1.013000000
H    -3.961000000     2.356000000     1.464000000
H    -3.171000000     2.226000000     0.179000000
O    -4.550000000     3.547000000    -4.603000000
H    -4.453000000     2.632000000    -4.339000000
H    -5.316000000     3.551000000    -5.178000000
O    -0.292000000     4.214000000     2.114000000
H    -0.943000000     3.867000000     2.724000000
H     0.527000000     3.794000000     2.374000000
O    -2.350000000    -0.311000000     2.218000000
H    -2.141000000     0.533000000     1.818000000
H    -1.575000000    -0.850000000     2.058000000
O     2.276000000    -0.266000000    -6.233000000
H     2.118000000     0.521000000    -6.753000000
H     1.680000000    -0.184000000    -5.487000000
O     5.998000000     4.815000000     0.292000000
H     5.346000000     4.132000000     0.447000000
H     6.761000000     4.539000000     0.800000000
O     1.330000000    -1.890000000     7.468000000
H     0.657000000    -2.497000000     7.778000000
H     0.948000000    -1.022000000     7.598000000
O    -1.339000000     2.457000000     4.063000000
H    -1.600000000     2.797000000     4.919000000
H    -1.649000000     1.552000000     4.059000000
O    -1.214000000    -5.458000000    -1.870000000
H    -1.461000000    -5.833000000    -1.025000000
H    -1.994000000    -4.985000000    -2.159000000
O    -3.457000000    -0.843000000    -6.103000000
H    -2.995000000    -0.733000000    -6.935000000
H    -2.794000000    -1.189000000    -5.506000000
O     5.129000000     0.852000000     3.062000000
H     4.297000000     1.178000000     2.717000000
H     5.132000000     1.126000000     3.979000000
O    -0.405000000    -1.789000000     4.245000000
H     0.310000000    -1.154000000     4.293000000
H    -0.961000000    -1.580000000     4.996000000
O    -1.623000000     4.061000000    -2.583000000
H    -2.038000000     3.972000000    -1.725000000
H    -1.038000000     4.813000000    -2.489000000
O    -6.511000000    -0.644000000    -3.093000000
H    -7.160000000    -1.002000000    -2.487000000
H    -6.869000000    -0.826000000    -3.962000000
O    -4.336000000    -2.713000000     0.194000000
H    -5.126000000    -2.285000000     0.522000000
H    -3.786000000    -2.829000000     0.970000000
O     7.314000000     0.362000000     1.491000000
H     6.453000000     0.390000000     1.909000000
H     7.143000000     0.024000000     0.612000000
O     2.374000000     3.544000000     3.849000000
H     2.310000000     2.785000000     3.268000000
H     2.598000000     3.173000000     4.703000000
O    -0.452000000     6.980000000     1.358000000
H    -0.559000000     6.070000000     1.634000000
H    -1.327000000     7.360000000     1.441000000
O     2.899000000     5.154000000    -1.202000000
H     3.234000000     4.350000000    -0.807000000
H     3.277000000     5.165000000    -2.081000000
O    -1.691000000     1.811000000    -4.083000000
H    -1.486000000     2.300000000    -3.285000000
H    -2.608000000     1.558000000    -3.980000000
O    -2.935000000     5.251000000     1.898000000
H    -2.548000000     4.376000000     1.883000000
H    -3.730000000     5.171000000     1.371000000
O    -0.707000000    -2.219000000    -5.260000000
H    -0.405000000    -2.587000000    -6.091000000
H    -0.058000000    -1.549000000    -5.046000000
