158
-3054.56046
C     0.798000000    -0.280000000     1.118000000
H     1.436000000    -0.594000000     1.941000000
C    -0.290000000    -1.050000000     0.743000000
H    -0.464000000    -2.010000000     1.223000000
C    -0.941000000    -0.687000000    -0.424000000
H    -1.867000000    -1.177000000    -0.715000000
C    -0.621000000     0.573000000    -1.096000000
H    -1.075000000     0.857000000    -2.041000000
C     0.457000000     1.316000000    -0.624000000
H     0.690000000     2.258000000    -1.114000000
C     1.179000000     0.935000000     0.504000000
C     2.293000000     1.785000000     1.082000000
O     2.860000000     1.523000000     2.117000000
O     2.586000000     2.787000000     0.499000000
O    -4.733000000    -2.119000000     0.726000000
H    -5.049000000    -2.922000000     0.311000000
H    -4.724000000    -1.472000000     0.020000000
O    -3.082000000    -0.141000000    -3.647000000
H    -2.593000000    -0.553000000    -4.359000000
H    -3.865000000     0.213000000    -4.068000000
O    -3.180000000     2.993000000    -3.611000000
H    -2.265000000     2.782000000    -3.798000000
H    -3.155000000     3.442000000    -2.766000000
O     3.898000000    -1.155000000    -0.799000000
H     3.927000000    -1.549000000    -1.671000000
H     4.813000000    -1.118000000    -0.522000000
O    -2.721000000    -1.752000000     2.991000000
H    -3.225000000    -2.021000000     2.223000000
H    -2.968000000    -2.379000000     3.671000000
O    -4.829000000     2.043000000    -5.644000000
H    -4.268000000     2.395000000    -4.953000000
H    -4.283000000     2.064000000    -6.430000000
O    -7.527000000    -1.203000000    -1.599000000
H    -7.200000000    -0.387000000    -1.220000000
H    -6.875000000    -1.859000000    -1.353000000
O     0.467000000     3.402000000    -3.352000000
H     0.723000000     3.936000000    -2.601000000
H     0.753000000     3.906000000    -4.114000000
O     3.162000000    -3.526000000     5.062000000
H     3.024000000    -2.587000000     5.186000000
H     3.979000000    -3.712000000     5.526000000
O    -0.225000000     1.555000000    -6.702000000
H    -0.743000000     0.753000000    -6.626000000
H     0.333000000     1.554000000    -5.924000000
O    -0.649000000    -5.392000000     1.638000000
H    -1.476000000    -5.072000000     1.999000000
H     0.020000000    -5.038000000     2.224000000
O     3.574000000     1.305000000    -2.498000000
H     3.639000000     0.654000000    -1.800000000
H     4.481000000     1.545000000    -2.688000000
O    -4.667000000    -0.465000000    -1.300000000
H    -4.017000000    -0.355000000    -1.994000000
H    -4.699000000     0.387000000    -0.865000000
O    -3.629000000    -5.264000000     2.201000000
H    -4.561000000    -5.133000000     2.378000000
H    -3.578000000    -6.141000000     1.822000000
O     1.436000000     1.257000000    -4.296000000
H     2.293000000     1.041000000    -3.929000000
H     0.964000000     1.671000000    -3.575000000
O     2.866000000    -3.354000000     1.069000000
H     3.089000000    -3.984000000     0.384000000
H     3.119000000    -2.506000000     0.705000000
O     4.591000000     3.548000000     3.709000000
H     4.922000000     2.798000000     4.202000000
H     3.915000000     3.181000000     3.139000000
O    -1.520000000    -0.673000000    -5.975000000
H    -1.498000000    -1.591000000    -5.705000000
H    -1.746000000    -0.702000000    -6.904000000
O     4.873000000    -2.160000000     2.842000000
H     4.384000000    -1.429000000     3.220000000
H     4.219000000    -2.848000000     2.718000000
O    -3.977000000    -5.504000000    -1.148000000
H    -3.993000000    -6.294000000    -0.609000000
H    -3.107000000    -5.132000000    -1.004000000
O    -0.136000000    -3.036000000     6.485000000
H    -0.445000000    -2.546000000     5.723000000
H     0.651000000    -2.570000000     6.767000000
O     1.334000000    -1.324000000    -5.418000000
H     0.583000000    -1.907000000    -5.526000000
H     0.978000000    -0.555000000    -4.972000000
O     5.229000000     3.835000000     0.489000000
H     4.969000000     4.621000000     0.970000000
H     4.529000000     3.206000000     0.661000000
O    -0.083000000    -1.140000000     4.157000000
H    -0.681000000    -0.586000000     4.660000000
H    -0.592000000    -1.409000000     3.392000000
O    -0.587000000    -3.483000000    -6.015000000
H    -0.739000000    -3.158000000    -5.128000000
H    -1.036000000    -4.328000000    -6.041000000
O     7.183000000     4.376000000     3.834000000
H     6.262000000     4.193000000     3.648000000
H     7.365000000     3.893000000     4.641000000
O     6.465000000     1.173000000    -1.041000000
H     7.263000000     1.288000000    -0.526000000
H     5.764000000     1.131000000    -0.390000000
O     5.278000000     0.599000000     1.512000000
H     5.689000000     0.782000000     2.357000000
H     4.345000000     0.745000000     1.662000000
O    -1.080000000    -2.549000000    -3.572000000
H    -0.287000000    -2.663000000    -3.048000000
H    -1.794000000    -2.791000000    -2.982000000
O    -0.054000000     6.157000000     2.753000000
H     0.732000000     5.634000000     2.912000000
H    -0.307000000     5.942000000     1.855000000
O    -4.554000000     1.761000000     0.387000000
H    -4.917000000     2.573000000     0.034000000
H    -4.429000000     1.939000000     1.319000000
O     1.216000000    -4.250000000     3.272000000
H     1.785000000    -4.054000000     4.017000000
H     1.776000000    -4.134000000     2.505000000
O     7.952000000     3.473000000     0.999000000
H     7.917000000     3.719000000     1.924000000
H     7.038000000     3.481000000     0.715000000
O     0.731000000     2.965000000     3.794000000
H     1.330000000     3.571000000     3.359000000
H     0.758000000     2.174000000     3.255000000
O     1.052000000    -2.924000000    -1.848000000
H     1.335000000    -2.077000000    -1.504000000
H     1.600000000    -3.563000000    -1.393000000
O    -3.564000000    -4.553000000    -4.042000000
H    -4.327000000    -3.987000000    -3.922000000
H    -3.594000000    -5.156000000    -3.299000000
O     5.601000000     1.176000000     4.680000000
H     6.354000000     0.906000000     5.206000000
H     4.876000000     0.645000000     5.011000000
O     2.526000000    -0.263000000     4.234000000
H     1.594000000    -0.479000000     4.205000000
H     2.645000000     0.380000000     3.534000000
O     4.412000000     6.611000000     1.197000000
H     5.350000000     6.800000000     1.208000000
H     4.061000000     7.183000000     0.514000000
O     3.815000000     4.171000000    -2.838000000
H     3.689000000     3.253000000    -3.078000000
H     3.023000000     4.403000000    -2.354000000
O    -6.657000000    -0.643000000     3.040000000
H    -6.188000000    -1.105000000     2.345000000
H    -6.358000000    -1.059000000     3.849000000
O    -2.282000000     1.031000000     2.328000000
H    -2.341000000     0.150000000     2.699000000
H    -1.831000000     0.909000000     1.493000000
O    -6.217000000    -3.772000000    -1.333000000
H    -5.498000000    -4.382000000    -1.166000000
H    -6.252000000    -3.700000000    -2.287000000
O     2.467000000     4.892000000     2.260000000
H     2.595000000     4.179000000     1.635000000
H     3.184000000     5.500000000     2.081000000
O     1.499000000     4.744000000    -1.203000000
H     0.804000000     5.178000000    -0.709000000
H     1.837000000     4.077000000    -0.605000000
O    -1.515000000    -4.197000000    -0.668000000
H    -1.244000000    -4.407000000     0.226000000
H    -0.705000000    -3.939000000    -1.109000000
O     4.078000000     7.227000000    -1.863000000
H     4.426000000     6.996000000    -2.724000000
H     4.059000000     6.400000000    -1.382000000
O    -2.578000000     4.210000000    -0.975000000
H    -2.239000000     4.903000000    -1.542000000
H    -2.338000000     4.485000000    -0.090000000
