158
-3019.96091
C     1.416000000    -0.393000000    -0.477000000
H     2.406000000    -0.559000000    -0.894000000
C     1.056000000     0.845000000     0.129000000
H     1.860000000     1.561000000     0.280000000
C    -0.270000000     1.061000000     0.619000000
H    -0.491000000     2.017000000     1.059000000
C    -1.251000000     0.082000000     0.422000000
H    -2.283000000     0.328000000     0.661000000
C    -0.921000000    -1.137000000    -0.209000000
H    -1.663000000    -1.869000000    -0.516000000
C     0.406000000    -1.367000000    -0.643000000
C     0.670000000    -2.673000000    -1.195000000
O    -0.072000000    -3.621000000    -1.186000000
O     1.806000000    -2.954000000    -1.669000000
O     0.726000000    -3.409000000    -6.947000000
H     0.915000000    -3.447000000    -6.010000000
H     1.252000000    -4.113000000    -7.327000000
O    -0.702000000     0.931000000    -2.725000000
H    -0.537000000     0.186000000    -3.303000000
H    -0.003000000     0.889000000    -2.073000000
O    -1.127000000    -4.580000000    -3.879000000
H    -0.791000000    -4.277000000    -3.036000000
H    -0.381000000    -4.510000000    -4.474000000
O     5.033000000     3.691000000    -1.794000000
H     5.287000000     4.334000000    -2.456000000
H     5.433000000     4.009000000    -0.985000000
O    -6.303000000     4.380000000    -1.188000000
H    -6.511000000     3.963000000    -2.024000000
H    -5.828000000     3.708000000    -0.698000000
O    -4.195000000     0.154000000    -2.049000000
H    -4.046000000     0.571000000    -2.897000000
H    -3.569000000    -0.570000000    -2.024000000
O    -0.435000000    -1.261000000    -4.333000000
H     0.445000000    -1.631000000    -4.262000000
H    -0.593000000    -1.198000000    -5.275000000
O     2.998000000     4.131000000     1.019000000
H     3.796000000     3.834000000     0.582000000
H     2.770000000     3.417000000     1.614000000
O     1.759000000     5.966000000     2.476000000
H     2.173000000     5.204000000     2.071000000
H     2.435000000     6.644000000     2.456000000
O     2.233000000     0.455000000     5.740000000
H     1.392000000     0.115000000     5.431000000
H     2.088000000     0.647000000     6.666000000
O    -1.040000000    -7.921000000    -1.257000000
H    -0.540000000    -7.928000000    -2.073000000
H    -1.946000000    -8.066000000    -1.530000000
O    -1.114000000     5.189000000     0.598000000
H    -1.306000000     5.168000000    -0.340000000
H    -0.158000000     5.178000000     0.647000000
O    -5.284000000    -2.026000000    -3.766000000
H    -4.411000000    -2.232000000    -4.099000000
H    -5.126000000    -1.450000000    -3.018000000
O     1.207000000    -7.618000000     0.444000000
H     1.496000000    -6.852000000    -0.052000000
H     0.328000000    -7.802000000     0.111000000
O    -3.286000000    -2.369000000     2.533000000
H    -3.488000000    -2.092000000     1.639000000
H    -3.860000000    -1.838000000     3.084000000
O     1.453000000     5.846000000    -0.652000000
H     2.183000000     6.219000000    -1.146000000
H     1.842000000     5.120000000    -0.164000000
O    -5.985000000     2.070000000     2.188000000
H    -5.435000000     2.321000000     2.930000000
H    -5.367000000     1.917000000     1.473000000
O    -2.455000000    -2.405000000    -3.264000000
H    -2.279000000    -3.336000000    -3.398000000
H    -1.640000000    -1.969000000    -3.512000000
O     1.535000000    -3.304000000    -4.401000000
H     2.343000000    -3.770000000    -4.616000000
H     1.418000000    -3.448000000    -3.462000000
O    -3.906000000     2.345000000     4.239000000
H    -4.245000000     2.275000000     5.131000000
H    -3.035000000     2.728000000     4.344000000
O     1.713000000    -4.143000000     1.606000000
H     2.059000000    -4.948000000     1.991000000
H     1.182000000    -4.440000000     0.867000000
O     6.488000000    -0.442000000     2.022000000
H     5.815000000    -0.039000000     1.473000000
H     6.147000000    -0.365000000     2.913000000
O    -5.455000000    -0.731000000     3.127000000
H    -5.211000000    -0.706000000     2.202000000
H    -6.278000000    -0.244000000     3.172000000
O     1.941000000     3.292000000    -3.058000000
H     2.387000000     3.971000000    -2.551000000
H     1.272000000     3.763000000    -3.554000000
O     3.688000000     1.584000000    -4.062000000
H     2.998000000     2.197000000    -3.808000000
H     4.391000000     1.741000000    -3.431000000
O    -4.556000000     2.304000000    -0.417000000
H    -3.929000000     2.873000000    -0.862000000
H    -4.659000000     1.554000000    -1.003000000
O    -1.292000000     3.704000000     4.668000000
H    -1.164000000     4.635000000     4.849000000
H    -0.630000000     3.263000000     5.201000000
O     7.128000000     0.031000000    -1.347000000
H     7.490000000     0.431000000    -2.138000000
H     6.624000000    -0.717000000    -1.666000000
O     4.922000000     1.443000000    -0.102000000
H     5.438000000     0.733000000    -0.486000000
H     4.971000000     2.150000000    -0.746000000
O     2.836000000     2.051000000     2.715000000
H     3.464000000     1.329000000     2.707000000
H     2.184000000     1.794000000     3.367000000
O     0.228000000     7.748000000    -2.001000000
H     0.270000000     7.302000000    -1.155000000
H     1.049000000     8.238000000    -2.053000000
O    -2.590000000     3.334000000    -1.858000000
H    -2.106000000     4.134000000    -2.059000000
H    -1.969000000     2.627000000    -2.033000000
O    -1.006000000     5.281000000    -2.888000000
H    -0.668000000     5.102000000    -3.766000000
H    -0.561000000     6.084000000    -2.619000000
O    -1.688000000    -4.793000000     3.119000000
H    -0.979000000    -4.537000000     2.529000000
H    -2.485000000    -4.667000000     2.605000000
O    -4.139000000     6.772000000     1.085000000
H    -4.252000000     6.595000000     0.151000000
H    -3.196000000     6.695000000     1.232000000
O     3.700000000    -1.631000000    -3.129000000
H     2.858000000    -1.928000000    -2.783000000
H     3.475000000    -0.924000000    -3.733000000
O     3.568000000    -4.536000000    -5.373000000
H     3.886000000    -5.433000000    -5.479000000
H     4.262000000    -3.990000000    -5.742000000
O    -1.724000000     6.937000000     3.249000000
H    -1.339000000     6.069000000     3.371000000
H    -1.362000000     7.244000000     2.417000000
O     1.924000000    -5.687000000    -1.096000000
H     2.868000000    -5.537000000    -1.141000000
H     1.536000000    -4.837000000    -1.301000000
O     5.869000000    -2.459000000    -1.539000000
H     5.368000000    -2.687000000    -0.756000000
H     5.207000000    -2.322000000    -2.216000000
O     0.231000000    -0.662000000     3.554000000
H    -0.392000000    -1.277000000     3.941000000
H    -0.120000000    -0.484000000     2.681000000
O     3.774000000    -3.468000000     0.036000000
H     3.057000000    -3.689000000     0.630000000
H     3.346000000    -3.307000000    -0.805000000
O    -2.096000000    -5.441000000    -0.084000000
H    -1.455000000    -5.960000000    -0.570000000
H    -1.779000000    -4.541000000    -0.154000000
O     2.163000000    -2.488000000     3.729000000
H     1.518000000    -1.780000000     3.729000000
H     2.096000000    -2.872000000     2.854000000
O    -3.693000000    -5.734000000    -3.776000000
H    -3.656000000    -6.617000000    -3.408000000
H    -2.777000000    -5.486000000    -3.896000000
O    -4.716000000    -0.978000000     0.511000000
H    -4.441000000    -0.375000000    -0.179000000
H    -5.581000000    -1.282000000     0.234000000
O     1.090000000     3.446000000     6.767000000
H     1.067000000     4.028000000     6.007000000
H     1.850000000     3.739000000     7.269000000
O     0.525000000     5.689000000     4.975000000
H     0.704000000     6.578000000     5.280000000
H     1.033000000     5.606000000     4.168000000
