158
-3057.17255
C    -0.461000000    -0.969000000     1.001000000
H    -0.842000000    -1.801000000     1.588000000
C    -0.912000000    -0.826000000    -0.313000000
H    -1.553000000    -1.550000000    -0.808000000
C    -0.342000000     0.118000000    -1.157000000
H    -0.566000000     0.149000000    -2.217000000
C     0.467000000     1.106000000    -0.640000000
H     0.859000000     1.891000000    -1.282000000
C     0.826000000     1.044000000     0.705000000
H     1.559000000     1.748000000     1.091000000
C     0.356000000     0.033000000     1.541000000
C     0.782000000    -0.178000000     2.926000000
O     0.096000000    -0.804000000     3.676000000
O     1.786000000     0.346000000     3.309000000
O     3.770000000    -2.854000000     1.889000000
H     4.537000000    -2.773000000     2.457000000
H     3.485000000    -1.953000000     1.741000000
O    -5.683000000    -2.720000000    -0.053000000
H    -6.104000000    -2.620000000     0.801000000
H    -6.399000000    -2.647000000    -0.683000000
O    -1.740000000    -1.127000000    -4.789000000
H    -1.486000000    -1.714000000    -4.077000000
H    -0.940000000    -0.648000000    -5.003000000
O    -3.233000000    -0.488000000    -7.083000000
H    -2.517000000    -0.400000000    -7.712000000
H    -2.801000000    -0.708000000    -6.257000000
O     3.743000000    -0.028000000     1.222000000
H     3.393000000     0.212000000     2.080000000
H     3.582000000     0.740000000     0.674000000
O     4.838000000     2.024000000     2.921000000
H     4.022000000     2.093000000     3.417000000
H     5.353000000     2.780000000     3.202000000
O     2.222000000    -0.336000000     6.288000000
H     2.248000000    -1.293000000     6.289000000
H     1.918000000    -0.106000000     5.410000000
O    -3.062000000    -4.377000000     2.433000000
H    -2.838000000    -4.916000000     1.674000000
H    -3.943000000    -4.660000000     2.676000000
O     0.617000000    -4.850000000     6.071000000
H     0.961000000    -4.070000000     5.637000000
H     0.164000000    -5.330000000     5.377000000
O    -4.400000000    -1.510000000    -3.167000000
H    -4.185000000    -2.315000000    -2.695000000
H    -3.887000000    -1.561000000    -3.974000000
O     3.707000000     1.935000000    -3.173000000
H     4.078000000     1.090000000    -3.424000000
H     3.727000000     1.932000000    -2.216000000
O    -1.486000000     4.246000000     1.772000000
H    -1.331000000     4.053000000     2.696000000
H    -2.031000000     3.521000000     1.464000000
O     2.585000000     4.052000000    -4.464000000
H     1.944000000     3.808000000    -5.132000000
H     2.789000000     3.230000000    -4.017000000
O    -3.845000000    -3.810000000    -1.742000000
H    -4.330000000    -4.303000000    -2.404000000
H    -4.388000000    -3.867000000    -0.956000000
O    -0.331000000    -5.524000000     3.511000000
H     0.188000000    -5.209000000     2.771000000
H    -1.154000000    -5.038000000     3.451000000
O    -5.040000000    -0.107000000    -1.059000000
H    -4.846000000    -0.337000000    -1.967000000
H    -5.297000000    -0.935000000    -0.652000000
O     6.418000000    -0.175000000     0.553000000
H     6.741000000     0.726000000     0.572000000
H     5.537000000    -0.122000000     0.923000000
O     2.679000000     6.195000000    -0.320000000
H     2.476000000     5.881000000     0.561000000
H     1.942000000     5.900000000    -0.855000000
O    -2.205000000     3.604000000    -2.687000000
H    -2.633000000     3.284000000    -1.893000000
H    -2.925000000     3.797000000    -3.288000000
O     0.165000000     2.557000000     6.466000000
H    -0.004000000     2.078000000     7.278000000
H     0.401000000     3.439000000     6.753000000
O     1.680000000    -4.698000000     1.740000000
H     2.336000000    -4.001000000     1.771000000
H     2.191000000    -5.504000000     1.672000000
O    -1.007000000     2.249000000    -5.073000000
H    -1.514000000     2.283000000    -4.262000000
H    -0.438000000     1.486000000    -4.967000000
O     0.784000000    -0.102000000    -4.826000000
H     1.416000000    -0.623000000    -4.332000000
H     1.322000000     0.466000000    -5.378000000
O     2.021000000    -2.293000000    -1.083000000
H     1.953000000    -3.188000000    -0.752000000
H     1.308000000    -1.823000000    -0.651000000
O    -1.471000000     3.465000000     4.498000000
H    -1.952000000     4.277000000     4.655000000
H    -0.878000000     3.389000000     5.245000000
O    -4.432000000     4.249000000    -4.300000000
H    -4.845000000     4.961000000    -4.789000000
H    -4.309000000     3.554000000    -4.947000000
O    -2.070000000    -2.281000000     3.951000000
H    -1.933000000    -2.898000000     3.232000000
H    -1.260000000    -1.772000000     3.987000000
O     5.112000000    -0.397000000    -3.280000000
H     4.592000000    -1.194000000    -3.387000000
H     5.986000000    -0.639000000    -3.586000000
O    -1.059000000    -0.271000000     6.564000000
H    -1.540000000    -0.742000000     5.884000000
H    -0.227000000    -0.038000000     6.152000000
O     5.730000000    -2.223000000     3.509000000
H     5.977000000    -1.343000000     3.793000000
H     6.508000000    -2.755000000     3.674000000
O     6.284000000     0.297000000     4.685000000
H     5.857000000     0.993000000     4.186000000
H     6.327000000     0.636000000     5.579000000
O     1.306000000    -4.190000000    -4.725000000
H     0.568000000    -3.809000000    -4.250000000
H     1.373000000    -5.083000000    -4.386000000
O     2.653000000     4.461000000     1.646000000
H     3.278000000     4.903000000     2.220000000
H     2.402000000     3.672000000     2.126000000
O     2.003000000     2.831000000     3.837000000
H     1.305000000     3.028000000     4.461000000
H     1.866000000     1.912000000     3.606000000
O     3.075000000    -2.557000000    -3.558000000
H     2.763000000    -2.382000000    -2.670000000
H     2.329000000    -2.964000000    -3.999000000
O    -0.146000000    -4.056000000    -0.220000000
H    -0.927000000    -4.419000000     0.195000000
H     0.576000000    -4.330000000     0.346000000
O    -0.865000000    -3.450000000    -2.829000000
H    -1.795000000    -3.390000000    -2.610000000
H    -0.448000000    -3.749000000    -2.020000000
O     1.107000000     6.411000000    -3.798000000
H     0.770000000     5.877000000    -3.079000000
H     1.320000000     5.781000000    -4.486000000
O     3.810000000     2.401000000    -0.394000000
H     4.720000000     2.501000000    -0.112000000
H     3.356000000     3.150000000    -0.008000000
O     1.879000000    -2.556000000     4.728000000
H     1.082000000    -2.032000000     4.652000000
H     2.310000000    -2.462000000     3.879000000
O     0.299000000     4.425000000    -6.020000000
H    -0.131000000     3.804000000    -5.431000000
H    -0.305000000     5.166000000    -6.069000000
O     0.082000000     5.272000000    -1.691000000
H    -0.673000000     4.795000000    -2.037000000
H    -0.188000000     5.543000000    -0.814000000
O    -4.553000000    -0.899000000     4.410000000
H    -4.267000000     0.013000000     4.463000000
H    -3.835000000    -1.350000000     3.966000000
O     2.352000000     1.611000000    -6.164000000
H     1.968000000     2.349000000    -6.638000000
H     3.264000000     1.588000000    -6.456000000
O    -3.490000000     2.544000000    -6.234000000
H    -2.575000000     2.516000000    -5.955000000
H    -3.657000000     1.672000000    -6.592000000
O     3.389000000     2.247000000     6.753000000
H     2.599000000     1.786000000     6.469000000
H     3.919000000     1.573000000     7.178000000
O    -3.432000000     1.397000000     4.655000000
H    -3.851000000     1.829000000     5.399000000
H    -2.544000000     1.756000000     4.638000000
O    -2.781000000     1.634000000    -0.686000000
H    -3.524000000     1.040000000    -0.573000000
H    -2.020000000     1.057000000    -0.744000000
