158
-3035.62611
C     0.498000000    -1.026000000     1.026000000
H     0.737000000    -1.865000000     1.674000000
C    -0.778000000    -1.024000000     0.394000000
H    -1.571000000    -1.760000000     0.505000000
C    -1.075000000    -0.050000000    -0.586000000
H    -2.007000000     0.019000000    -1.046000000
C    -0.090000000     0.896000000    -0.922000000
H    -0.397000000     1.697000000    -1.591000000
C     1.099000000     0.939000000    -0.205000000
H     1.737000000     1.785000000    -0.447000000
C     1.351000000    -0.006000000     0.820000000
C     2.599000000     0.260000000     1.619000000
O     3.014000000    -0.496000000     2.483000000
O     3.347000000     1.130000000     1.320000000
O    -6.141000000     1.342000000    -0.737000000
H    -5.245000000     1.591000000    -0.512000000
H    -6.631000000     1.447000000     0.078000000
O    -6.568000000    -0.957000000     0.996000000
H    -7.186000000    -0.280000000     1.273000000
H    -6.088000000    -1.184000000     1.792000000
O    -5.514000000    -1.479000000    -5.385000000
H    -5.240000000    -2.265000000    -4.912000000
H    -5.343000000    -0.761000000    -4.775000000
O     3.451000000    -3.967000000     1.208000000
H     3.100000000    -3.882000000     2.095000000
H     2.981000000    -4.712000000     0.835000000
O    -4.584000000    -3.955000000     0.051000000
H    -3.784000000    -4.222000000     0.505000000
H    -5.293000000    -4.239000000     0.629000000
O     2.849000000     0.780000000    -4.649000000
H     3.801000000     0.774000000    -4.750000000
H     2.567000000    -0.071000000    -4.986000000
O    -3.992000000     0.108000000    -3.353000000
H    -4.380000000    -0.346000000    -2.605000000
H    -3.081000000    -0.185000000    -3.365000000
O     2.364000000     3.228000000    -3.370000000
H     1.447000000     3.116000000    -3.120000000
H     2.582000000     2.425000000    -3.844000000
O     6.600000000     4.112000000    -0.028000000
H     7.337000000     3.735000000    -0.509000000
H     5.836000000     3.920000000    -0.572000000
O     4.004000000     2.917000000     4.624000000
H     4.769000000     2.415000000     4.341000000
H     3.257000000     2.361000000     4.402000000
O     1.319000000    -1.040000000    -2.468000000
H     2.216000000    -0.834000000    -2.206000000
H     0.773000000    -0.620000000    -1.803000000
O     6.482000000     0.002000000     5.115000000
H     6.891000000     0.821000000     4.837000000
H     7.127000000    -0.673000000     4.903000000
O    -1.943000000    -4.785000000     0.950000000
H    -1.343000000    -4.986000000     0.231000000
H    -1.371000000    -4.621000000     1.700000000
O    -4.025000000     3.421000000    -2.846000000
H    -3.429000000     2.977000000    -3.450000000
H    -4.059000000     2.849000000    -2.080000000
O    -6.937000000     0.819000000    -3.346000000
H    -7.320000000     1.679000000    -3.170000000
H    -6.475000000     0.593000000    -2.538000000
O    -4.953000000    -1.356000000     3.136000000
H    -4.211000000    -0.858000000     2.792000000
H    -5.575000000    -0.689000000     3.425000000
O     7.179000000     0.553000000    -0.074000000
H     7.089000000    -0.357000000    -0.356000000
H     6.343000000     0.758000000     0.345000000
O     0.577000000     2.269000000    -5.645000000
H     1.299000000     1.801000000    -5.227000000
H     0.402000000     1.774000000    -6.446000000
O     5.471000000    -1.776000000     2.642000000
H     4.689000000    -1.227000000     2.598000000
H     5.346000000    -2.427000000     1.951000000
O    -5.520000000    -3.555000000    -3.068000000
H    -5.925000000    -3.069000000    -2.350000000
H    -5.095000000    -4.300000000    -2.643000000
O    -2.916000000    -3.471000000    -4.388000000
H    -2.981000000    -4.355000000    -4.749000000
H    -3.770000000    -3.315000000    -3.984000000
O     4.611000000     3.249000000    -1.727000000
H     4.671000000     2.351000000    -1.404000000
H     3.706000000     3.336000000    -2.026000000
O    -0.187000000    -6.570000000     3.953000000
H    -0.112000000    -5.738000000     3.487000000
H     0.674000000    -6.977000000     3.855000000
O     3.925000000    -1.855000000    -0.722000000
H     3.397000000    -2.568000000    -0.362000000
H     4.824000000    -2.183000000    -0.690000000
O     3.756000000    -0.845000000     5.169000000
H     3.430000000    -0.652000000     4.290000000
H     4.620000000    -0.434000000     5.199000000
O     0.029000000    -4.049000000     2.844000000
H    -0.609000000    -3.336000000     2.888000000
H     0.824000000    -3.683000000     3.231000000
O     4.419000000     0.764000000    -1.059000000
H     4.184000000     0.822000000    -0.133000000
H     4.481000000    -0.176000000    -1.232000000
O    -1.097000000    -2.169000000    -5.878000000
H    -1.627000000    -2.734000000    -5.316000000
H    -1.288000000    -2.469000000    -6.767000000
O    -0.361000000    -0.210000000     4.484000000
H    -0.973000000    -0.688000000     3.925000000
H     0.071000000    -0.889000000     5.002000000
O    -3.382000000     3.032000000    -0.053000000
H    -2.437000000     2.968000000     0.086000000
H    -3.631000000     3.854000000     0.370000000
O    -2.049000000    -2.449000000     2.863000000
H    -2.782000000    -2.042000000     2.402000000
H    -2.449000000    -2.867000000     3.626000000
O     5.546000000     0.331000000    -3.659000000
H     5.446000000     0.703000000    -2.783000000
H     5.082000000    -0.505000000    -3.618000000
O    -2.563000000     5.581000000    -3.221000000
H    -3.107000000     4.801000000    -3.115000000
H    -2.710000000     5.854000000    -4.127000000
O    -1.088000000    -4.470000000    -2.188000000
H    -1.577000000    -5.277000000    -2.030000000
H    -1.735000000    -3.773000000    -2.077000000
O    -2.958000000     0.252000000     2.441000000
H    -3.058000000     1.061000000     2.942000000
H    -2.077000000     0.307000000     2.070000000
O     0.544000000     2.317000000     3.586000000
H     0.077000000     2.854000000     4.225000000
H     0.293000000     1.418000000     3.798000000
O     1.246000000    -3.695000000    -3.379000000
H     0.582000000    -4.080000000    -2.807000000
H     1.175000000    -2.752000000    -3.228000000
O     5.940000000     1.290000000     2.366000000
H     5.057000000     1.505000000     2.067000000
H     5.914000000     0.348000000     2.532000000
O     2.430000000    -2.848000000     3.938000000
H     2.816000000    -2.150000000     3.410000000
H     2.648000000    -2.616000000     4.840000000
O    -0.254000000     4.073000000    -3.162000000
H    -0.320000000     5.026000000    -3.217000000
H    -1.076000000     3.800000000    -2.754000000
O    -4.819000000    -1.367000000    -1.264000000
H    -5.329000000    -1.173000000    -0.478000000
H    -4.539000000    -2.275000000    -1.150000000
O    -2.477000000     0.531000000    -7.136000000
H    -3.083000000     0.452000000    -6.399000000
H    -2.709000000     1.362000000    -7.549000000
O     8.082000000     3.244000000     2.612000000
H     7.362000000     2.613000000     2.596000000
H     8.124000000     3.582000000     1.717000000
O     2.175000000     3.683000000     1.424000000
H     2.553000000     2.835000000     1.191000000
H     1.921000000     3.588000000     2.342000000
O     1.946000000     6.167000000     0.377000000
H     1.840000000     5.240000000     0.591000000
H     2.466000000     6.170000000    -0.427000000
O    -2.121000000     2.635000000    -4.596000000
H    -1.387000000     2.890000000    -5.155000000
H    -1.933000000     1.729000000    -4.352000000
O    -0.580000000     3.826000000     0.412000000
H    -0.462000000     4.749000000     0.186000000
H     0.305000000     3.460000000     0.394000000
O    -1.244000000    -0.266000000    -4.010000000
H    -1.384000000    -1.117000000    -4.426000000
H    -0.312000000    -0.089000000    -4.136000000
