158
-3013.93719
C    -0.114000000    -1.409000000    -0.052000000
H    -0.153000000    -2.457000000    -0.340000000
C    -0.647000000    -0.548000000    -1.049000000
H    -1.083000000    -0.775000000    -2.018000000
C    -0.337000000     0.785000000    -0.893000000
H    -0.743000000     1.462000000    -1.643000000
C     0.226000000     1.204000000     0.294000000
H     0.295000000     2.269000000     0.502000000
C     0.749000000     0.377000000     1.270000000
H     1.096000000     0.643000000     2.265000000
C     0.602000000    -0.979000000     1.093000000
C     1.160000000    -1.989000000     2.047000000
O     0.793000000    -3.169000000     1.860000000
O     1.654000000    -1.639000000     3.097000000
O    -4.278000000     5.382000000    -2.864000000
H    -3.696000000     4.625000000    -2.800000000
H    -4.915000000     5.138000000    -3.536000000
O     2.709000000    -6.773000000     2.814000000
H     2.633000000    -6.255000000     2.012000000
H     2.589000000    -7.678000000     2.527000000
O     5.646000000     2.059000000    -0.745000000
H     4.737000000     2.112000000    -0.449000000
H     6.010000000     1.313000000    -0.268000000
O    -1.704000000    -1.867000000    -4.374000000
H    -1.773000000    -2.275000000    -5.237000000
H    -1.011000000    -1.214000000    -4.472000000
O     2.348000000    -5.037000000     0.601000000
H     1.655000000    -5.502000000     0.133000000
H     1.915000000    -4.263000000     0.963000000
O    -3.664000000     0.372000000    -4.047000000
H    -2.989000000    -0.307000000    -4.037000000
H    -4.482000000    -0.105000000    -4.187000000
O    -2.373000000     4.232000000    -0.567000000
H    -2.845000000     3.400000000    -0.511000000
H    -2.939000000     4.858000000    -0.115000000
O     1.138000000     3.221000000     5.613000000
H     1.157000000     3.996000000     5.051000000
H     0.525000000     2.627000000     5.181000000
O    -0.378000000    -7.757000000     1.151000000
H    -0.049000000    -7.340000000     0.354000000
H     0.299000000    -8.392000000     1.386000000
O    -3.002000000    -3.117000000    -1.047000000
H    -2.292000000    -3.672000000    -1.367000000
H    -2.689000000    -2.788000000    -0.205000000
O     3.676000000     2.586000000     3.638000000
H     4.057000000     3.153000000     4.308000000
H     3.004000000     2.086000000     4.102000000
O    -1.711000000     1.582000000     3.612000000
H    -0.920000000     1.166000000     3.955000000
H    -1.871000000     1.140000000     2.779000000
O    -3.625000000     0.455000000     5.224000000
H    -2.949000000     0.704000000     4.594000000
H    -3.317000000     0.808000000     6.059000000
O    -1.121000000    -4.181000000    -2.897000000
H    -1.578000000    -3.439000000    -3.291000000
H    -0.809000000    -4.694000000    -3.643000000
O    -3.183000000    -6.452000000    -1.384000000
H    -2.753000000    -6.205000000    -0.565000000
H    -3.830000000    -7.109000000    -1.126000000
O    -0.161000000     4.671000000     2.092000000
H    -0.506000000     4.631000000     1.199000000
H     0.789000000     4.650000000     1.983000000
O     2.748000000     2.735000000    -0.436000000
H     2.472000000     2.791000000    -1.351000000
H     2.560000000     1.831000000    -0.185000000
O    -0.337000000     5.429000000    -1.756000000
H    -0.984000000     4.962000000    -1.228000000
H    -0.662000000     6.329000000    -1.795000000
O     0.073000000     0.163000000     5.189000000
H     0.979000000    -0.132000000     5.109000000
H    -0.235000000    -0.226000000     6.008000000
O     2.713000000     4.407000000     1.736000000
H     3.109000000     3.808000000     2.369000000
H     2.732000000     3.927000000     0.908000000
O    -0.004000000     2.295000000    -5.309000000
H    -0.409000000     2.703000000    -6.074000000
H     0.609000000     2.954000000    -4.982000000
O    -2.886000000     3.039000000    -3.986000000
H    -2.052000000     2.945000000    -4.445000000
H    -3.270000000     2.163000000    -4.004000000
O    -3.289000000     1.245000000    -6.732000000
H    -3.620000000     0.503000000    -7.238000000
H    -3.429000000     0.994000000    -5.819000000
O    -2.625000000     4.115000000     4.665000000
H    -1.895000000     3.563000000     4.384000000
H    -2.267000000     5.003000000     4.663000000
O     2.342000000     0.135000000    -1.766000000
H     2.389000000    -0.797000000    -1.980000000
H     1.615000000     0.202000000    -1.147000000
O     2.649000000     1.393000000     7.550000000
H     2.456000000     1.296000000     6.618000000
H     2.879000000     2.316000000     7.652000000
O     1.411000000     4.314000000    -4.046000000
H     2.009000000     3.628000000    -3.749000000
H     1.336000000     4.907000000    -3.299000000
O     3.699000000    -3.163000000     3.660000000
H     2.902000000    -2.700000000     3.402000000
H     3.412000000    -4.062000000     3.822000000
O    -1.929000000    -2.530000000     2.807000000
H    -1.104000000    -2.850000000     2.442000000
H    -1.838000000    -1.577000000     2.806000000
O     2.813000000     2.333000000    -3.258000000
H     3.141000000     2.116000000    -4.131000000
H     2.788000000     1.494000000    -2.797000000
O     5.164000000    -1.414000000     4.783000000
H     5.599000000    -2.154000000     5.206000000
H     4.470000000    -1.813000000     4.257000000
O    -1.737000000    -4.641000000     5.368000000
H    -0.854000000    -4.688000000     5.002000000
H    -2.003000000    -3.732000000     5.235000000
O     0.399000000    -3.326000000     7.851000000
H     0.501000000    -3.073000000     6.934000000
H    -0.115000000    -4.133000000     7.822000000
O     2.221000000     6.146000000    -2.181000000
H     2.744000000     6.664000000    -1.569000000
H     1.367000000     6.064000000    -1.757000000
O    -4.469000000     2.647000000    -0.574000000
H    -4.831000000     2.288000000    -1.384000000
H    -4.670000000     1.989000000     0.091000000
O     2.695000000    -0.147000000     5.076000000
H     3.650000000    -0.206000000     5.043000000
H     2.414000000    -0.321000000     4.178000000
O     2.108000000    -2.417000000    -2.517000000
H     1.457000000    -3.061000000    -2.797000000
H     2.938000000    -2.753000000    -2.856000000
O     0.552000000    -5.218000000     3.890000000
H     0.647000000    -4.764000000     3.053000000
H     1.265000000    -5.857000000     3.898000000
O     0.355000000    -5.709000000    -1.273000000
H    -0.223000000    -5.009000000    -1.576000000
H     0.090000000    -6.476000000    -1.781000000
O    -4.217000000    -0.464000000    -1.022000000
H    -4.928000000    -0.798000000    -0.475000000
H    -3.897000000    -1.232000000    -1.495000000
O     5.271000000    -2.256000000     0.594000000
H     4.491000000    -2.407000000     1.129000000
H     5.834000000    -3.008000000     0.774000000
O     3.534000000    -4.296000000     6.520000000
H     3.064000000    -5.117000000     6.375000000
H     3.038000000    -3.646000000     6.021000000
O     0.632000000    -0.233000000    -4.594000000
H     1.027000000    -0.210000000    -3.723000000
H     0.296000000     0.652000000    -4.728000000
O     1.452000000     0.725000000    -7.316000000
H     0.831000000     0.606000000    -6.597000000
H     0.936000000     1.126000000    -8.015000000
O     4.997000000    -5.548000000     0.590000000
H     5.332000000    -5.527000000     1.486000000
H     4.055000000    -5.405000000     0.683000000
O     0.960000000    -2.823000000     5.388000000
H     1.156000000    -2.225000000     4.666000000
H     0.665000000    -3.626000000     4.960000000
O    -2.456000000    -1.894000000     5.656000000
H    -2.879000000    -1.056000000     5.469000000
H    -1.527000000    -1.736000000     5.489000000
O    -2.227000000    -0.089000000     1.557000000
H    -1.403000000    -0.071000000     1.071000000
H    -2.903000000    -0.153000000     0.882000000
