158
-3044.05200
C     0.852000000    -0.909000000     0.701000000
H     1.625000000    -1.558000000     1.104000000
C     0.735000000    -0.833000000    -0.623000000
H     1.411000000    -1.398000000    -1.261000000
C    -0.086000000     0.118000000    -1.207000000
H    -0.144000000     0.251000000    -2.298000000
C    -0.914000000     0.911000000    -0.457000000
H    -1.660000000     1.483000000    -1.003000000
C    -0.812000000     0.912000000     0.903000000
H    -1.433000000     1.567000000     1.508000000
C     0.105000000    -0.015000000     1.546000000
C     0.350000000    -0.006000000     3.065000000
O     1.007000000    -0.865000000     3.521000000
O    -0.096000000     0.832000000     3.823000000
O     4.183000000     2.181000000     2.438000000
H     4.082000000     1.715000000     3.268000000
H     3.404000000     2.733000000     2.378000000
O    -4.471000000     2.784000000    -2.300000000
H    -4.406000000     3.524000000    -2.904000000
H    -4.339000000     3.171000000    -1.434000000
O     6.845000000    -2.128000000    -0.796000000
H     5.913000000    -2.338000000    -0.736000000
H     7.140000000    -2.089000000     0.114000000
O     3.253000000     1.148000000     4.822000000
H     4.124000000     0.776000000     4.963000000
H     2.672000000     0.389000000     4.778000000
O    -0.180000000    -4.624000000    -1.261000000
H    -0.731000000    -5.129000000    -1.858000000
H    -0.798000000    -4.114000000    -0.737000000
O     5.067000000     0.555000000    -4.017000000
H     5.947000000     0.698000000    -3.669000000
H     4.764000000    -0.241000000    -3.580000000
O     2.970000000     4.955000000     4.362000000
H     2.480000000     4.967000000     5.184000000
H     2.531000000     4.291000000     3.830000000
O    -3.266000000    -2.661000000    -5.738000000
H    -3.217000000    -3.061000000    -6.606000000
H    -2.353000000    -2.537000000    -5.479000000
O     1.197000000    -2.998000000    -3.980000000
H     1.325000000    -3.297000000    -3.080000000
H     0.373000000    -2.511000000    -3.956000000
O    -1.369000000    -1.998000000    -3.787000000
H    -1.506000000    -1.053000000    -3.856000000
H    -2.202000000    -2.338000000    -3.460000000
O     2.493000000    -4.783000000    -0.804000000
H     1.583000000    -4.753000000    -1.102000000
H     2.965000000    -4.224000000    -1.422000000
O    -1.591000000     3.367000000    -4.713000000
H    -2.029000000     3.987000000    -5.296000000
H    -0.687000000     3.677000000    -4.670000000
O    -1.506000000    -2.716000000     5.715000000
H    -1.225000000    -3.124000000     4.896000000
H    -1.887000000    -3.433000000     6.222000000
O    -3.713000000    -0.909000000     5.387000000
H    -3.119000000    -1.616000000     5.135000000
H    -4.097000000    -1.202000000     6.214000000
O    -5.731000000     0.168000000     3.760000000
H    -4.981000000    -0.268000000     4.166000000
H    -5.345000000     0.733000000     3.091000000
O     3.107000000     3.029000000    -3.366000000
H     3.476000000     2.238000000    -3.758000000
H     3.228000000     2.908000000    -2.424000000
O    -1.853000000     0.647000000    -4.402000000
H    -1.961000000     1.591000000    -4.283000000
H    -1.383000000     0.562000000    -5.232000000
O    -1.606000000    -2.588000000     0.869000000
H    -1.299000000    -2.825000000     1.744000000
H    -0.886000000    -2.083000000     0.492000000
O    -3.691000000     4.479000000     1.645000000
H    -3.151000000     4.334000000     0.868000000
H    -3.070000000     4.745000000     2.322000000
O    -4.269000000     1.835000000     2.076000000
H    -4.971000000     1.642000000     1.454000000
H    -4.095000000     2.769000000     1.959000000
O    -2.412000000     4.381000000    -0.761000000
H    -1.780000000     3.920000000    -1.313000000
H    -2.675000000     5.140000000    -1.282000000
O     5.728000000    -3.569000000     3.691000000
H     6.125000000    -3.212000000     4.486000000
H     4.829000000    -3.240000000     3.705000000
O     3.897000000     0.978000000    -6.431000000
H     4.279000000     1.018000000    -5.554000000
H     3.348000000     0.193000000    -6.417000000
O     4.015000000    -1.116000000    -2.194000000
H     4.054000000    -1.801000000    -2.861000000
H     4.097000000    -1.585000000    -1.364000000
O     4.038000000     1.764000000    -1.038000000
H     4.712000000     1.800000000    -0.360000000
H     3.981000000     0.837000000    -1.270000000
O     0.183000000    -2.506000000    -7.008000000
H    -0.043000000    -3.080000000    -6.276000000
H     0.673000000    -3.068000000    -7.610000000
O     3.037000000    -2.752000000     3.891000000
H     2.310000000    -2.136000000     3.980000000
H     3.255000000    -2.996000000     4.791000000
O    -3.783000000    -0.726000000     0.491000000
H    -3.070000000    -1.351000000     0.360000000
H    -3.467000000    -0.145000000     1.183000000
O     1.999000000    -2.267000000     7.779000000
H     1.575000000    -1.664000000     7.168000000
H     1.274000000    -2.717000000     8.213000000
O    -2.481000000     4.094000000     6.427000000
H    -2.448000000     3.270000000     5.941000000
H    -2.444000000     4.771000000     5.752000000
O     0.876000000     1.277000000     8.316000000
H     0.786000000     0.604000000     7.642000000
H     0.056000000     1.769000000     8.274000000
O     1.623000000     3.159000000     2.514000000
H     1.417000000     3.149000000     1.579000000
H     1.339000000     2.302000000     2.831000000
O    -5.626000000    -0.017000000    -1.483000000
H    -5.312000000     0.327000000    -2.319000000
H    -4.897000000    -0.540000000    -1.150000000
O     1.270000000     2.917000000     5.299000000
H     2.003000000     2.308000000     5.389000000
H     0.607000000     2.423000000     4.816000000
O     1.525000000     3.034000000    -0.088000000
H     0.905000000     2.502000000    -0.586000000
H     2.385000000     2.756000000    -0.402000000
O     0.226000000    -3.335000000     3.032000000
H     0.724000000    -2.543000000     3.233000000
H     0.890000000    -4.019000000     2.941000000
O     3.627000000    -3.646000000    -2.986000000
H     3.020000000    -3.472000000    -3.706000000
H     4.398000000    -4.024000000    -3.409000000
O    -3.416000000    -3.139000000    -2.322000000
H    -4.297000000    -3.225000000    -2.687000000
H    -3.369000000    -3.816000000    -1.646000000
O    -0.503000000     0.326000000    -6.856000000
H     0.351000000     0.621000000    -7.174000000
H    -0.458000000    -0.629000000    -6.901000000
O     4.033000000    -2.293000000     0.272000000
H     3.384000000    -2.985000000     0.141000000
H     4.153000000    -2.254000000     1.221000000
O    -4.521000000    -0.322000000    -4.504000000
H    -3.913000000     0.312000000    -4.886000000
H    -4.158000000    -1.175000000    -4.741000000
O     2.170000000    -5.495000000     2.639000000
H     2.843000000    -4.830000000     2.782000000
H     2.647000000    -6.324000000     2.639000000
O     1.057000000     4.453000000    -4.141000000
H     1.132000000     5.154000000    -3.493000000
H     1.760000000     3.843000000    -3.916000000
O    -1.551000000     5.280000000     3.300000000
H    -0.697000000     5.203000000     3.725000000
H    -1.709000000     6.223000000     3.248000000
O     1.702000000     1.329000000    -7.817000000
H     2.386000000     1.427000000    -7.154000000
H     2.097000000     0.771000000    -8.488000000
O     2.987000000    -1.741000000    -5.924000000
H     2.201000000    -2.148000000    -5.560000000
H     3.113000000    -2.174000000    -6.768000000
O     0.389000000    -0.784000000     6.246000000
H     0.373000000    -0.247000000     5.454000000
H    -0.255000000    -1.472000000     6.082000000
O    -2.221000000     1.350000000     5.419000000
H    -1.469000000     1.183000000     4.851000000
H    -2.775000000     0.576000000     5.317000000
