158
-3017.99478
C    -0.309000000    -1.455000000    -0.090000000
H    -0.635000000    -2.489000000    -0.175000000
C    -0.614000000    -0.497000000    -1.082000000
H    -1.221000000    -0.797000000    -1.932000000
C    -0.190000000     0.830000000    -0.934000000
H    -0.456000000     1.657000000    -1.545000000
C     0.420000000     1.173000000     0.221000000
H     0.689000000     2.213000000     0.388000000
C     0.726000000     0.253000000     1.192000000
H     1.176000000     0.514000000     2.146000000
C     0.350000000    -1.062000000     1.061000000
C     0.595000000    -2.044000000     2.221000000
O     0.135000000    -3.125000000     2.113000000
O     1.187000000    -1.692000000     3.195000000
O    -0.030000000    -7.047000000     0.786000000
H     0.814000000    -6.595000000     0.764000000
H     0.152000000    -7.911000000     0.417000000
O     4.220000000    -2.426000000     7.286000000
H     4.204000000    -2.245000000     8.226000000
H     3.385000000    -2.088000000     6.963000000
O    -1.900000000     0.199000000    -4.340000000
H    -1.801000000    -0.534000000    -4.947000000
H    -1.007000000     0.402000000    -4.062000000
O    -1.662000000    -1.841000000    -6.058000000
H    -2.522000000    -2.191000000    -6.290000000
H    -1.042000000    -2.484000000    -6.402000000
O     1.661000000    -4.967000000     0.392000000
H     1.381000000    -4.781000000    -0.505000000
H     1.211000000    -4.311000000     0.924000000
O    -4.090000000     1.675000000    -5.163000000
H    -3.499000000     1.097000000    -4.680000000
H    -4.943000000     1.244000000    -5.109000000
O    -4.228000000     2.424000000    -0.244000000
H    -4.084000000     1.967000000    -1.072000000
H    -5.136000000     2.723000000    -0.291000000
O    -1.790000000    -6.107000000    -0.819000000
H    -1.197000000    -5.402000000    -1.078000000
H    -1.271000000    -6.651000000    -0.227000000
O    -4.140000000    -4.785000000    -0.311000000
H    -3.380000000    -5.242000000     0.050000000
H    -3.993000000    -3.865000000    -0.091000000
O     2.897000000     2.520000000     2.260000000
H     3.622000000     2.933000000     2.730000000
H     2.973000000     1.590000000     2.472000000
O    -2.318000000     1.765000000     1.559000000
H    -2.997000000     2.032000000     0.940000000
H    -1.784000000     1.136000000     1.072000000
O     1.053000000    -2.776000000    -4.057000000
H     1.314000000    -1.863000000    -4.173000000
H     0.794000000    -3.065000000    -4.932000000
O     1.210000000    -4.655000000     3.904000000
H     0.654000000    -4.059000000     3.403000000
H     0.831000000    -5.521000000     3.752000000
O    -4.414000000    -1.466000000     3.582000000
H    -5.145000000    -2.019000000     3.305000000
H    -3.724000000    -2.084000000     3.823000000
O    -0.290000000     6.448000000     1.019000000
H    -0.835000000     5.857000000     0.500000000
H     0.597000000     6.099000000     0.926000000
O     2.236000000     3.640000000    -1.787000000
H     1.866000000     3.298000000    -2.601000000
H     3.154000000     3.814000000    -1.996000000
O    -2.156000000     4.444000000     0.320000000
H    -1.736000000     3.703000000     0.757000000
H    -2.068000000     4.252000000    -0.614000000
O    -0.931000000     1.486000000     3.699000000
H    -1.556000000     0.872000000     4.085000000
H    -1.348000000     1.772000000     2.886000000
O     1.615000000     4.548000000     0.597000000
H     1.676000000     3.843000000     1.241000000
H     1.708000000     4.110000000    -0.249000000
O     5.593000000    -4.633000000     2.428000000
H     6.200000000    -3.936000000     2.677000000
H     4.735000000    -4.316000000     2.710000000
O     0.420000000     5.585000000    -3.413000000
H     0.728000000     5.884000000    -4.268000000
H     0.828000000     6.185000000    -2.788000000
O     4.183000000     1.454000000    -5.141000000
H     4.977000000     0.955000000    -4.947000000
H     4.086000000     2.048000000    -4.397000000
O    -1.767000000     4.078000000    -2.340000000
H    -1.131000000     4.699000000    -2.697000000
H    -2.033000000     3.550000000    -3.093000000
O    -2.309000000     3.241000000    -6.985000000
H    -3.105000000     3.166000000    -7.513000000
H    -2.473000000     2.683000000    -6.225000000
O     4.800000000     1.825000000    -0.381000000
H     4.109000000     2.024000000     0.251000000
H     5.244000000     1.059000000    -0.018000000
O     2.097000000     1.612000000     6.252000000
H     2.291000000     1.078000000     5.481000000
H     2.386000000     2.493000000     6.012000000
O     3.673000000    -2.622000000     3.116000000
H     3.172000000    -1.973000000     2.622000000
H     3.016000000    -3.096000000     3.626000000
O    -4.599000000    -2.171000000     0.464000000
H    -4.556000000    -1.319000000     0.897000000
H    -5.102000000    -2.010000000    -0.334000000
O     0.931000000     3.049000000    -4.410000000
H     0.906000000     2.814000000    -5.338000000
H     0.657000000     3.966000000    -4.389000000
O     5.037000000    -0.901000000     5.100000000
H     5.113000000    -1.409000000     5.908000000
H     5.501000000    -1.424000000     4.445000000
O     0.967000000     3.553000000     4.128000000
H     1.480000000     3.436000000     3.328000000
H     0.400000000     2.783000000     4.164000000
O    -6.789000000     1.818000000    -1.737000000
H    -6.075000000     1.203000000    -1.903000000
H    -7.531000000     1.265000000    -1.494000000
O    -2.226000000    -0.664000000     6.243000000
H    -1.388000000    -0.360000000     6.593000000
H    -2.786000000    -0.763000000     7.013000000
O     2.766000000     0.251000000     3.978000000
H     3.627000000    -0.167000000     3.976000000
H     2.149000000    -0.472000000     3.862000000
O     2.328000000     0.628000000    -2.098000000
H     2.444000000     1.554000000    -1.884000000
H     1.507000000     0.385000000    -1.670000000
O    -2.560000000    -7.527000000     3.709000000
H    -2.322000000    -6.698000000     3.295000000
H    -3.319000000    -7.834000000     3.213000000
O     1.023000000    -0.841000000    -7.489000000
H     0.645000000    -0.597000000    -6.644000000
H     1.960000000    -0.926000000    -7.317000000
O    -1.503000000    -5.580000000     2.304000000
H    -1.183000000    -4.681000000     2.234000000
H    -1.113000000    -6.033000000     1.557000000
O     0.402000000    -4.393000000    -2.021000000
H     0.528000000    -3.556000000    -2.468000000
H     0.547000000    -5.051000000    -2.700000000
O    -5.839000000    -1.207000000    -1.719000000
H    -6.756000000    -1.449000000    -1.588000000
H    -5.764000000    -1.054000000    -2.661000000
O     3.657000000    -5.369000000     4.507000000
H     2.852000000    -5.033000000     4.113000000
H     3.367000000    -5.815000000     5.303000000
O     1.425000000    -0.030000000    -4.610000000
H     1.926000000    -0.116000000    -3.798000000
H     1.500000000     0.896000000    -4.840000000
O    -1.128000000    -5.159000000     6.183000000
H    -1.716000000    -5.775000000     6.619000000
H    -0.624000000    -5.698000000     5.573000000
O     0.031000000    -1.081000000     7.693000000
H     0.066000000    -1.964000000     7.324000000
H     0.948000000    -0.832000000     7.806000000
O     4.351000000    -5.164000000    -0.001000000
H     4.675000000    -4.886000000     0.856000000
H     3.405000000    -5.247000000     0.116000000
O     1.454000000    -2.725000000     5.839000000
H     1.546000000    -2.228000000     5.026000000
H     1.417000000    -3.639000000     5.558000000
O    -2.559000000    -3.050000000     4.855000000
H    -1.864000000    -3.615000000     5.194000000
H    -2.501000000    -2.255000000     5.384000000
O    -3.656000000     0.572000000    -2.135000000
H    -2.905000000     0.270000000    -2.646000000
H    -4.146000000    -0.225000000    -1.935000000
