158
-3063.71156
C     1.221000000    -0.892000000    -0.080000000
H     2.040000000    -1.598000000    -0.189000000
C     0.473000000    -0.490000000    -1.161000000
H     0.619000000    -0.999000000    -2.110000000
C    -0.545000000     0.471000000    -1.040000000
H    -1.101000000     0.829000000    -1.864000000
C    -0.787000000     0.973000000     0.240000000
H    -1.565000000     1.732000000     0.223000000
C    -0.208000000     0.418000000     1.364000000
H    -0.504000000     0.743000000     2.358000000
C     0.782000000    -0.576000000     1.252000000
C     1.421000000    -1.099000000     2.507000000
O     2.099000000    -2.105000000     2.526000000
O     1.209000000    -0.553000000     3.604000000
O    -5.216000000    -0.666000000    -3.464000000
H    -6.140000000    -0.877000000    -3.335000000
H    -4.904000000    -0.416000000    -2.594000000
O    -0.725000000    -4.764000000     0.894000000
H    -0.599000000    -4.521000000    -0.023000000
H    -0.867000000    -5.711000000     0.873000000
O    -1.111000000    -1.815000000    -5.044000000
H    -0.318000000    -2.351000000    -5.059000000
H    -0.958000000    -1.142000000    -5.707000000
O    -3.628000000    -2.700000000    -5.141000000
H    -2.741000000    -2.403000000    -4.941000000
H    -4.159000000    -2.374000000    -4.414000000
O     3.321000000    -2.836000000    -2.218000000
H     3.127000000    -1.899000000    -2.228000000
H     4.114000000    -2.911000000    -1.687000000
O    -0.141000000     4.225000000    -6.925000000
H     0.292000000     3.518000000    -6.447000000
H     0.397000000     4.998000000    -6.749000000
O     1.862000000     2.401000000    -3.304000000
H     1.879000000     2.724000000    -2.404000000
H     2.672000000     2.731000000    -3.692000000
O     2.608000000     2.160000000     6.466000000
H     3.496000000     2.140000000     6.822000000
H     2.724000000     2.035000000     5.524000000
O    -0.675000000    -4.355000000    -1.834000000
H    -0.355000000    -3.831000000    -2.568000000
H    -1.461000000    -4.785000000    -2.170000000
O    -2.760000000    -3.851000000     2.802000000
H    -2.585000000    -4.682000000     2.361000000
H    -2.493000000    -3.184000000     2.170000000
O    -2.749000000     4.522000000    -5.277000000
H    -2.806000000     4.031000000    -6.097000000
H    -2.448000000     3.879000000    -4.634000000
O    -1.109000000     0.472000000    -6.375000000
H    -0.474000000     1.083000000    -6.000000000
H    -0.930000000     0.488000000    -7.315000000
O    -4.024000000    -1.636000000     4.790000000
H    -3.142000000    -1.815000000     4.464000000
H    -3.990000000    -1.872000000     5.717000000
O     0.799000000    -6.145000000     5.015000000
H     1.726000000    -6.349000000     5.137000000
H     0.787000000    -5.500000000     4.308000000
O     2.786000000    -4.539000000     1.527000000
H     2.490000000    -3.668000000     1.793000000
H     2.239000000    -4.758000000     0.773000000
O    -2.415000000    -1.682000000     0.746000000
H    -1.994000000    -2.444000000     0.349000000
H    -1.888000000    -0.938000000     0.454000000
O    -3.550000000     1.132000000     3.624000000
H    -3.789000000     1.439000000     4.498000000
H    -2.690000000     0.728000000     3.738000000
O    -0.031000000     4.807000000     0.437000000
H    -0.559000000     5.118000000    -0.298000000
H     0.441000000     4.050000000     0.089000000
O    -0.094000000     4.747000000     3.155000000
H    -0.087000000     4.567000000     2.214000000
H     0.035000000     3.891000000     3.563000000
O     6.454000000    -0.462000000    -2.031000000
H     7.305000000    -0.781000000    -2.333000000
H     6.021000000    -1.237000000    -1.672000000
O     4.308000000     1.244000000     0.960000000
H     4.990000000     1.841000000     1.266000000
H     4.517000000     0.408000000     1.377000000
O     4.846000000     1.689000000    -1.899000000
H     4.543000000     1.780000000    -0.996000000
H     5.363000000     0.884000000    -1.899000000
O     1.020000000    -3.566000000    -4.248000000
H     1.868000000    -3.296000000    -3.895000000
H     1.236000000    -4.046000000    -5.047000000
O     4.041000000    -2.406000000     4.233000000
H     3.264000000    -2.198000000     3.715000000
H     3.708000000    -2.916000000     4.971000000
O    -4.690000000    -0.719000000    -0.843000000
H    -4.528000000    -1.647000000    -0.668000000
H    -4.477000000    -0.280000000    -0.019000000
O    -1.437000000     5.260000000    -2.063000000
H    -1.058000000     4.896000000    -2.864000000
H    -2.382000000     5.164000000    -2.180000000
O     0.426000000     2.348000000     4.158000000
H     1.016000000     1.615000000     3.984000000
H    -0.214000000     2.000000000     4.779000000
O     0.409000000     0.986000000     7.510000000
H     0.624000000     0.102000000     7.213000000
H     1.217000000     1.484000000     7.383000000
O     3.014000000     3.705000000     2.874000000
H     3.403000000     2.918000000     3.255000000
H     2.071000000     3.545000000     2.904000000
O    -4.485000000     4.691000000    -2.584000000
H    -4.330000000     4.889000000    -3.508000000
H    -5.170000000     4.023000000    -2.594000000
O     3.681000000     1.402000000     4.090000000
H     4.491000000     0.970000000     4.359000000
H     3.090000000     0.684000000     3.864000000
O     5.932000000    -3.008000000    -1.324000000
H     6.821000000    -3.291000000    -1.539000000
H     5.532000000    -3.772000000    -0.908000000
O     1.962000000     2.732000000    -0.462000000
H     1.202000000     2.151000000    -0.493000000
H     2.543000000     2.332000000     0.185000000
O    -5.176000000     0.730000000     1.460000000
H    -4.675000000     0.705000000     2.276000000
H    -5.611000000     1.582000000     1.473000000
O     0.480000000    -4.262000000     3.119000000
H     1.188000000    -3.641000000     2.946000000
H    -0.073000000    -4.218000000     2.339000000
O     2.959000000    -0.273000000    -3.661000000
H     2.553000000     0.567000000    -3.446000000
H     3.696000000    -0.044000000    -4.228000000
O    -6.196000000     2.529000000    -4.695000000
H    -6.191000000     2.641000000    -5.646000000
H    -5.452000000     1.953000000    -4.518000000
O     5.441000000    -1.272000000     2.221000000
H     5.631000000    -2.014000000     1.647000000
H     4.736000000    -1.582000000     2.789000000
O    -2.757000000     0.589000000    -3.897000000
H    -2.445000000    -0.173000000    -4.385000000
H    -3.662000000     0.374000000    -3.670000000
O     5.676000000    -4.618000000     1.112000000
H     4.978000000    -4.544000000     1.764000000
H     6.415000000    -4.988000000     1.593000000
O     1.186000000     2.019000000    -6.011000000
H     1.099000000     2.431000000    -5.151000000
H     1.855000000     1.346000000    -5.888000000
O     3.117000000    -6.300000000     3.362000000
H     3.000000000    -5.637000000     2.681000000
H     3.990000000    -6.128000000     3.716000000
O    -1.045000000    -2.614000000     4.963000000
H    -1.265000000    -3.377000000     5.498000000
H    -0.536000000    -2.971000000     4.235000000
O     3.202000000    -3.811000000     6.432000000
H     2.452000000    -3.672000000     7.011000000
H     3.481000000    -4.709000000     6.613000000
O     2.190000000    -5.255000000    -1.224000000
H     2.345000000    -4.367000000    -1.546000000
H     1.479000000    -5.588000000    -1.773000000
O     0.998000000    -1.655000000     6.347000000
H     1.296000000    -1.573000000     5.441000000
H     0.189000000    -2.164000000     6.288000000
O    -1.321000000     0.048000000     4.471000000
H    -0.404000000    -0.170000000     4.307000000
H    -1.573000000    -0.510000000     5.206000000
O    -1.105000000     2.672000000    -3.908000000
H    -1.623000000     1.958000000    -4.279000000
H    -0.393000000     2.233000000    -3.441000000
