158
-3040.21947
C     0.204000000    -1.215000000     0.904000000
H     0.372000000    -2.208000000     1.314000000
C    -0.331000000    -1.230000000    -0.439000000
H    -0.595000000    -2.160000000    -0.938000000
C    -0.517000000    -0.059000000    -1.090000000
H    -1.102000000    -0.024000000    -1.961000000
C    -0.163000000     1.130000000    -0.548000000
H    -0.351000000     2.070000000    -1.062000000
C     0.483000000     1.135000000     0.689000000
H     0.708000000     2.073000000     1.190000000
C     0.602000000    -0.006000000     1.498000000
C     1.251000000     0.044000000     2.864000000
O     1.118000000    -0.859000000     3.645000000
O     1.863000000     1.061000000     3.152000000
O     5.205000000    -2.200000000     1.976000000
H     6.085000000    -2.157000000     1.603000000
H     4.902000000    -1.292000000     1.979000000
O    -4.589000000    -3.879000000    -1.314000000
H    -4.153000000    -3.832000000    -2.164000000
H    -5.522000000    -3.917000000    -1.525000000
O    -0.271000000    -2.163000000    -7.138000000
H     0.510000000    -2.220000000    -7.688000000
H     0.050000000    -2.316000000    -6.249000000
O     2.181000000    -6.567000000     2.594000000
H     2.709000000    -7.365000000     2.593000000
H     2.764000000    -5.893000000     2.243000000
O     4.764000000     3.548000000     5.318000000
H     4.238000000     3.093000000     5.975000000
H     4.487000000     4.462000000     5.379000000
O    -2.941000000    -2.103000000    -6.476000000
H    -3.578000000    -2.325000000    -7.155000000
H    -2.090000000    -2.265000000    -6.884000000
O     3.996000000     0.483000000     1.238000000
H     3.535000000     1.300000000     1.433000000
H     4.519000000     0.684000000     0.462000000
O     5.633000000     0.445000000     3.546000000
H     4.937000000     0.429000000     4.203000000
H     5.176000000     0.352000000     2.711000000
O     3.441000000     0.345000000     5.613000000
H     2.971000000    -0.280000000     6.166000000
H     2.851000000     0.503000000     4.876000000
O     3.008000000    -4.198000000     6.469000000
H     3.145000000    -3.671000000     5.682000000
H     2.499000000    -4.950000000     6.169000000
O    -1.923000000    -0.038000000    -4.728000000
H    -1.743000000     0.817000000    -5.118000000
H    -2.346000000    -0.537000000    -5.427000000
O     3.023000000     1.895000000    -1.925000000
H     2.634000000     2.706000000    -1.597000000
H     3.888000000     1.862000000    -1.516000000
O    -1.750000000     3.772000000     1.999000000
H    -0.885000000     3.478000000     2.282000000
H    -1.773000000     3.584000000     1.060000000
O     2.342000000     4.021000000    -4.373000000
H     1.851000000     3.346000000    -4.842000000
H     2.781000000     3.550000000    -3.665000000
O    -1.593000000    -5.079000000    -3.565000000
H    -2.442000000    -5.455000000    -3.798000000
H    -1.808000000    -4.271000000    -3.101000000
O     0.582000000    -5.967000000     4.745000000
H     1.135000000    -6.210000000     4.003000000
H     0.052000000    -5.240000000     4.420000000
O    -2.476000000    -2.559000000    -3.203000000
H    -1.708000000    -2.148000000    -3.601000000
H    -3.206000000    -1.991000000    -3.450000000
O     2.345000000     4.450000000    -1.008000000
H     2.148000000     4.944000000    -0.213000000
H     1.538000000     4.488000000    -1.520000000
O    -2.793000000     3.634000000    -2.508000000
H    -3.023000000     2.762000000    -2.189000000
H    -3.629000000     4.097000000    -2.563000000
O     0.590000000     6.028000000     3.893000000
H     0.334000000     5.106000000     3.872000000
H     1.481000000     6.022000000     4.243000000
O     4.195000000    -4.597000000     1.418000000
H     4.434000000    -3.688000000     1.601000000
H     5.009000000    -5.086000000     1.534000000
O    -0.910000000     2.479000000    -4.601000000
H    -0.902000000     3.031000000    -3.819000000
H    -0.126000000     1.936000000    -4.518000000
O     1.458000000     0.957000000    -4.265000000
H     1.728000000     1.232000000    -3.389000000
H     2.232000000     0.525000000    -4.629000000
O     1.384000000    -1.411000000     6.551000000
H     1.536000000    -1.513000000     5.611000000
H     0.696000000    -0.748000000     6.611000000
O     2.659000000    -1.190000000    -1.000000000
H     1.758000000    -0.889000000    -0.879000000
H     3.171000000    -0.662000000    -0.388000000
O     0.286000000     3.117000000     3.668000000
H    -0.158000000     2.922000000     4.493000000
H     1.069000000     2.567000000     3.681000000
O    -3.219000000     4.760000000    -5.131000000
H    -4.093000000     4.455000000    -5.377000000
H    -2.641000000     4.026000000    -5.340000000
O    -0.171000000    -3.020000000     4.076000000
H    -0.797000000    -3.003000000     3.351000000
H     0.390000000    -2.260000000     3.925000000
O    -0.355000000     0.375000000     5.403000000
H    -1.250000000     0.334000000     5.067000000
H     0.188000000     0.070000000     4.677000000
O    -4.628000000    -0.962000000    -0.593000000
H    -4.106000000    -1.729000000    -0.827000000
H    -5.468000000    -1.322000000    -0.307000000
O    -1.541000000    -3.426000000     6.253000000
H    -0.897000000    -3.191000000     5.585000000
H    -1.089000000    -4.061000000     6.809000000
O     1.131000000     5.786000000     1.196000000
H     1.075000000     6.189000000     2.062000000
H     0.266000000     5.926000000     0.810000000
O     2.811000000    -4.366000000    -3.673000000
H     2.077000000    -4.980000000    -3.684000000
H     2.985000000    -4.217000000    -2.744000000
O     5.288000000     4.605000000     1.363000000
H     5.256000000     5.487000000     1.733000000
H     4.684000000     4.096000000     1.903000000
O    -7.284000000    -1.381000000    -2.281000000
H    -6.579000000    -0.800000000    -2.565000000
H    -7.309000000    -2.070000000    -2.945000000
O     3.709000000     2.875000000     2.696000000
H     4.029000000     3.006000000     3.588000000
H     2.855000000     2.458000000     2.807000000
O     0.700000000    -1.907000000    -4.482000000
H     0.643000000    -0.992000000    -4.207000000
H     1.466000000    -2.249000000    -4.022000000
O    -0.186000000    -4.849000000     1.544000000
H     0.447000000    -5.473000000     1.898000000
H    -1.005000000    -5.057000000     1.994000000
O     0.523000000    -6.384000000    -1.750000000
H    -0.269000000    -6.254000000    -2.272000000
H     0.545000000    -5.633000000    -1.157000000
O    -4.745000000    -0.877000000    -4.139000000
H    -4.820000000    -1.260000000    -5.013000000
H    -5.140000000    -0.009000000    -4.223000000
O     3.465000000    -2.950000000     4.216000000
H     2.780000000    -2.326000000     3.977000000
H     4.159000000    -2.802000000     3.574000000
O     0.106000000     4.501000000    -2.281000000
H    -0.824000000     4.304000000    -2.168000000
H     0.220000000     5.361000000    -1.875000000
O    -2.220000000    -1.823000000     2.632000000
H    -2.583000000    -1.208000000     3.270000000
H    -2.232000000    -1.343000000     1.803000000
O    -1.007000000     2.080000000    -7.402000000
H    -0.839000000     2.040000000    -6.461000000
H    -0.382000000     1.462000000    -7.783000000
O     2.728000000     2.988000000     7.109000000
H     2.214000000     2.181000000     7.104000000
H     2.802000000     3.220000000     8.035000000
O     2.155000000    -4.613000000    -0.382000000
H     3.008000000    -4.599000000     0.052000000
H     1.533000000    -4.370000000     0.304000000
O    -3.170000000     0.700000000     4.086000000
H    -3.066000000     1.485000000     4.625000000
H    -3.797000000     0.161000000     4.567000000
O    -3.650000000     1.034000000    -2.072000000
H    -4.326000000     0.682000000    -1.494000000
H    -3.424000000     0.304000000    -2.649000000
