158
-3023.19485
C     0.141000000    -1.298000000     0.721000000
H     0.056000000    -2.206000000     1.311000000
C    -0.578000000    -1.142000000    -0.463000000
H    -1.252000000    -1.924000000    -0.804000000
C    -0.670000000     0.111000000    -1.060000000
H    -1.365000000     0.402000000    -1.860000000
C     0.090000000     1.157000000    -0.498000000
H     0.106000000     2.127000000    -0.988000000
C     0.780000000     1.025000000     0.746000000
H     1.220000000     1.938000000     1.138000000
C     0.861000000    -0.258000000     1.326000000
C     1.595000000    -0.484000000     2.594000000
O     2.125000000    -1.578000000     2.870000000
O     1.842000000     0.463000000     3.331000000
O    -4.357000000    -4.826000000    -0.599000000
H    -3.600000000    -5.342000000    -0.879000000
H    -5.095000000    -5.432000000    -0.659000000
O    -1.935000000    -2.458000000    -6.362000000
H    -1.315000000    -3.129000000    -6.649000000
H    -1.440000000    -1.927000000    -5.737000000
O     3.963000000     2.616000000     6.437000000
H     3.800000000     1.673000000     6.457000000
H     3.100000000     3.012000000     6.555000000
O     5.623000000    -4.703000000     5.219000000
H     5.569000000    -5.646000000     5.374000000
H     5.038000000    -4.548000000     4.478000000
O     4.042000000    -1.676000000     0.849000000
H     4.672000000    -0.975000000     1.016000000
H     3.569000000    -1.775000000     1.675000000
O     6.563000000     0.782000000     4.443000000
H     5.693000000     0.424000000     4.621000000
H     6.459000000     1.728000000     4.545000000
O     3.889000000    -0.012000000     4.971000000
H     4.071000000    -0.889000000     5.310000000
H     3.255000000    -0.154000000     4.268000000
O     2.833000000    -3.417000000     6.599000000
H     2.306000000    -3.728000000     5.862000000
H     3.521000000    -4.075000000     6.694000000
O    -4.008000000    -0.085000000    -4.772000000
H    -3.913000000    -0.116000000    -5.724000000
H    -4.953000000    -0.099000000    -4.624000000
O     4.582000000     1.668000000    -0.968000000
H     5.091000000     0.971000000    -0.555000000
H     3.837000000     1.801000000    -0.382000000
O    -1.490000000     3.052000000     1.966000000
H    -1.922000000     3.886000000     1.778000000
H    -1.944000000     2.417000000     1.412000000
O    -1.936000000    -4.491000000    -2.699000000
H    -2.567000000    -4.927000000    -3.272000000
H    -2.065000000    -3.557000000    -2.868000000
O     1.979000000    -6.119000000     4.212000000
H     1.873000000    -6.691000000     3.452000000
H     1.773000000    -5.244000000     3.884000000
O    -2.879000000    -1.690000000    -3.020000000
H    -3.116000000    -0.911000000    -3.523000000
H    -3.700000000    -1.976000000    -2.620000000
O     1.764000000     5.776000000    -2.878000000
H     1.347000000     5.629000000    -2.029000000
H     1.821000000     4.906000000    -3.271000000
O    -2.044000000     4.360000000    -1.434000000
H    -2.774000000     4.967000000    -1.554000000
H    -1.740000000     4.172000000    -2.322000000
O    -4.387000000    -3.027000000    -5.597000000
H    -3.559000000    -2.654000000    -5.899000000
H    -4.451000000    -2.759000000    -4.681000000
O     0.020000000     3.810000000     6.050000000
H    -0.101000000     3.285000000     5.258000000
H     0.390000000     3.200000000     6.688000000
O     2.424000000     4.780000000     2.083000000
H     1.866000000     4.930000000     2.847000000
H     3.021000000     4.084000000     2.356000000
O     4.669000000    -5.210000000     0.898000000
H     4.507000000    -4.690000000     1.685000000
H     4.873000000    -6.085000000     1.227000000
O    -0.693000000     1.610000000    -5.535000000
H    -1.187000000     2.374000000    -5.835000000
H    -1.224000000     1.245000000    -4.827000000
O    -3.577000000     2.588000000    -4.742000000
H    -4.156000000     2.834000000    -4.020000000
H    -3.662000000     1.637000000    -4.804000000
O    -2.236000000     4.359000000     4.461000000
H    -1.940000000     3.930000000     3.658000000
H    -1.602000000     4.088000000     5.124000000
O     3.081000000     0.927000000    -3.123000000
H     3.516000000     1.271000000    -2.343000000
H     3.797000000     0.702000000    -3.717000000
O     2.415000000    -0.756000000     7.847000000
H     2.124000000    -0.575000000     6.954000000
H     2.528000000    -1.706000000     7.874000000
O     2.000000000    -2.029000000    -2.019000000
H     1.656000000    -1.799000000    -1.156000000
H     2.297000000    -1.197000000    -2.388000000
O     0.504000000     2.707000000     3.719000000
H    -0.199000000     2.756000000     3.071000000
H     0.918000000     1.859000000     3.559000000
O    -2.105000000     4.646000000    -5.802000000
H    -2.479000000     5.218000000    -6.472000000
H    -2.748000000     3.945000000    -5.699000000
O     0.938000000    -3.886000000     3.232000000
H    -0.001000000    -3.755000000     3.361000000
H     1.267000000    -3.024000000     2.977000000
O    -3.379000000     0.853000000     3.916000000
H    -3.031000000     0.862000000     3.024000000
H    -4.292000000     0.583000000     3.814000000
O     0.695000000    -0.222000000     5.662000000
H    -0.250000000    -0.254000000     5.510000000
H     1.073000000    -0.090000000     4.793000000
O    -4.215000000    -3.575000000     2.180000000
H    -4.156000000    -3.884000000     1.276000000
H    -5.009000000    -3.042000000     2.200000000
O    -0.313000000    -2.785000000     7.067000000
H    -0.660000000    -2.604000000     6.193000000
H     0.629000000    -2.892000000     6.933000000
O     0.580000000     5.094000000    -0.516000000
H     0.995000000     4.555000000     0.157000000
H    -0.312000000     4.752000000    -0.580000000
O    -5.312000000    -2.857000000    -2.480000000
H    -6.219000000    -2.565000000    -2.576000000
H    -5.360000000    -3.591000000    -1.868000000
O    -5.475000000     3.189000000    -2.825000000
H    -5.881000000     2.974000000    -1.985000000
H    -6.201000000     3.191000000    -3.449000000
O     4.074000000     2.547000000     3.365000000
H     4.187000000     2.794000000     4.283000000
H     3.324000000     1.952000000     3.368000000
O     0.079000000    -1.345000000    -4.770000000
H    -0.066000000    -2.054000000    -4.144000000
H     0.661000000    -0.737000000    -4.313000000
O     0.613000000    -5.752000000     1.145000000
H     0.786000000    -4.899000000     1.543000000
H     1.098000000    -6.373000000     1.689000000
O     0.054000000    -6.052000000    -1.783000000
H    -0.528000000    -5.324000000    -2.001000000
H     0.154000000    -6.001000000    -0.832000000
O    -5.262000000    -0.575000000    -0.635000000
H    -5.283000000    -1.242000000    -1.321000000
H    -5.715000000     0.177000000    -1.017000000
O     5.963000000     0.322000000     0.749000000
H     6.807000000    -0.117000000     0.645000000
H     6.011000000     0.734000000     1.611000000
O     4.082000000    -3.667000000     3.149000000
H     3.375000000    -3.050000000     3.336000000
H     4.758000000    -3.136000000     2.728000000
O     1.891000000     3.312000000    -3.863000000
H     1.635000000     3.326000000    -4.785000000
H     2.054000000     2.388000000    -3.673000000
O    -1.698000000    -2.598000000     3.411000000
H    -1.882000000    -1.896000000     4.034000000
H    -2.526000000    -2.731000000     2.949000000
O     1.570000000     0.800000000    -6.900000000
H     0.947000000     1.128000000    -6.252000000
H     1.146000000     0.025000000    -7.269000000
O     2.037000000     7.215000000     0.461000000
H     1.269000000     7.241000000    -0.109000000
H     1.995000000     6.354000000     0.879000000
O    -3.162000000     0.350000000     1.228000000
H    -2.494000000     0.473000000     0.554000000
H    -3.853000000    -0.149000000     0.792000000
