158
-3021.92881
C    -0.625000000    -1.112000000     0.791000000
H    -1.177000000    -1.854000000     1.362000000
C    -1.173000000    -0.450000000    -0.320000000
H    -2.136000000    -0.651000000    -0.782000000
C    -0.483000000     0.606000000    -0.951000000
H    -0.878000000     1.202000000    -1.700000000
C     0.756000000     1.005000000    -0.518000000
H     1.258000000     1.809000000    -1.051000000
C     1.315000000     0.349000000     0.616000000
H     2.333000000     0.622000000     0.880000000
C     0.602000000    -0.664000000     1.338000000
C     1.311000000    -1.363000000     2.484000000
O     0.803000000    -2.348000000     3.019000000
O     2.305000000    -0.845000000     2.950000000
O     0.188000000     4.134000000    -1.861000000
H     0.354000000     4.478000000    -2.739000000
H     0.067000000     3.193000000    -1.991000000
O     1.804000000    -2.309000000     5.677000000
H     1.634000000    -2.128000000     4.753000000
H     1.090000000    -1.874000000     6.143000000
O    -4.588000000    -2.639000000    -2.983000000
H    -3.648000000    -2.819000000    -2.972000000
H    -4.998000000    -3.504000000    -2.979000000
O    -1.134000000    -4.431000000     7.154000000
H    -0.276000000    -4.049000000     7.339000000
H    -1.282000000    -4.250000000     6.226000000
O     4.214000000    -1.326000000     6.348000000
H     3.328000000    -1.665000000     6.222000000
H     4.153000000    -0.401000000     6.107000000
O    -1.625000000    -3.568000000    -2.478000000
H    -0.920000000    -3.984000000    -2.974000000
H    -1.188000000    -3.187000000    -1.716000000
O    -2.446000000     2.209000000    -4.391000000
H    -2.037000000     1.948000000    -5.215000000
H    -2.938000000     1.436000000    -4.113000000
O    -2.156000000     5.530000000    -0.332000000
H    -2.078000000     5.032000000    -1.146000000
H    -1.329000000     5.376000000     0.124000000
O     3.989000000     1.270000000    -4.013000000
H     4.286000000     0.376000000    -3.845000000
H     4.536000000     1.573000000    -4.737000000
O     3.414000000     3.860000000    -3.272000000
H     3.673000000     2.986000000    -3.563000000
H     2.718000000     4.118000000    -3.877000000
O     0.459000000     5.037000000     0.547000000
H     0.502000000     4.609000000    -0.308000000
H     1.367000000     5.262000000     0.748000000
O    -3.040000000    -1.909000000     5.127000000
H    -2.781000000    -1.179000000     5.689000000
H    -3.860000000    -2.224000000     5.506000000
O     3.736000000    -4.641000000     0.695000000
H     2.987000000    -4.754000000     1.280000000
H     4.496000000    -4.646000000     1.276000000
O     2.996000000     2.060000000    -6.419000000
H     3.052000000     1.595000000    -5.584000000
H     3.876000000     1.990000000    -6.791000000
O     2.124000000    -4.704000000     7.021000000
H     2.041000000    -5.366000000     6.335000000
H     2.342000000    -3.899000000     6.551000000
O     2.111000000     3.590000000     3.575000000
H     1.271000000     3.319000000     3.205000000
H     2.638000000     3.840000000     2.816000000
O    -3.326000000     0.539000000     3.020000000
H    -2.994000000    -0.163000000     3.580000000
H    -3.149000000     1.341000000     3.512000000
O     0.942000000     4.364000000    -4.714000000
H     1.401000000     4.926000000    -5.338000000
H     0.019000000     4.596000000    -4.816000000
O    -2.002000000     4.719000000    -5.394000000
H    -2.061000000     5.347000000    -4.675000000
H    -2.232000000     3.879000000    -4.998000000
O     0.814000000     1.511000000    -4.942000000
H     0.018000000     1.506000000    -5.474000000
H     1.181000000     2.386000000    -5.069000000
O     1.643000000    -5.196000000     2.887000000
H     1.637000000    -4.263000000     3.100000000
H     1.739000000    -5.634000000     3.733000000
O     3.358000000     1.039000000     4.437000000
H     2.861000000     0.412000000     3.912000000
H     3.163000000     1.889000000     4.044000000
O    -3.549000000    -3.134000000     1.325000000
H    -3.322000000    -3.761000000     2.011000000
H    -3.582000000    -3.658000000     0.524000000
O     5.422000000     0.036000000    -0.692000000
H     5.222000000    -0.131000000    -1.613000000
H     4.886000000    -0.594000000    -0.212000000
O     5.184000000     0.059000000     2.261000000
H     4.710000000    -0.629000000     2.728000000
H     4.601000000     0.307000000     1.544000000
O     3.025000000     5.888000000    -0.344000000
H     3.026000000     5.442000000    -1.191000000
H     2.500000000     6.676000000    -0.489000000
O     6.128000000     2.893000000     0.118000000
H     7.078000000     2.979000000     0.189000000
H     5.996000000     2.070000000    -0.353000000
O    -2.379000000    -6.219000000     0.289000000
H    -2.221000000    -6.523000000    -0.605000000
H    -1.919000000    -5.381000000     0.341000000
O    -4.460000000    -0.683000000     0.803000000
H    -4.115000000    -1.569000000     0.911000000
H    -4.102000000    -0.194000000     1.543000000
O     0.769000000    -1.153000000    -4.533000000
H     1.154000000    -1.535000000    -5.322000000
H     0.901000000    -0.211000000    -4.634000000
O     3.906000000     3.862000000     1.573000000
H     4.716000000     3.591000000     1.142000000
H     3.614000000     4.625000000     1.076000000
O    -4.402000000     1.371000000    -1.081000000
H    -4.409000000     0.903000000    -1.916000000
H    -4.410000000     0.680000000    -0.419000000
O     6.297000000    -2.615000000     1.511000000
H     5.692000000    -2.547000000     2.249000000
H     6.030000000    -1.913000000     0.917000000
O    -0.331000000     2.247000000     2.671000000
H    -1.114000000     2.630000000     3.067000000
H    -0.651000000     1.816000000     1.878000000
O     2.530000000     1.753000000     7.244000000
H     2.841000000     1.457000000     6.389000000
H     2.997000000     2.574000000     7.398000000
O    -0.576000000    -4.124000000     0.452000000
H    -0.380000000    -3.752000000     1.312000000
H     0.281000000    -4.247000000     0.044000000
O    -4.265000000     0.332000000    -3.553000000
H    -3.663000000    -0.405000000    -3.453000000
H    -4.932000000     0.016000000    -4.163000000
O    -1.823000000    -1.096000000    -3.409000000
H    -1.576000000    -2.015000000    -3.304000000
H    -1.027000000    -0.668000000    -3.725000000
O     1.253000000    -1.885000000    -2.107000000
H     1.162000000    -1.621000000    -3.023000000
H     0.749000000    -1.233000000    -1.619000000
O     4.408000000    -2.401000000     3.384000000
H     4.309000000    -3.338000000     3.551000000
H     3.532000000    -2.109000000     3.132000000
O    -6.245000000    -1.575000000    -1.189000000
H    -5.745000000    -1.965000000    -1.907000000
H    -5.590000000    -1.381000000    -0.518000000
O    -6.095000000     3.358000000    -0.156000000
H    -6.900000000     3.349000000    -0.673000000
H    -5.658000000     2.536000000    -0.379000000
O     3.596000000    -2.271000000    -1.245000000
H     2.730000000    -2.140000000    -1.630000000
H     3.515000000    -3.081000000    -0.742000000
O    -0.791000000    -3.448000000     4.684000000
H    -0.209000000    -2.961000000     4.102000000
H    -1.604000000    -2.941000000     4.688000000
O    -5.131000000     4.966000000    -3.417000000
H    -4.836000000     5.789000000    -3.026000000
H    -4.616000000     4.292000000    -2.974000000
O    -1.217000000     1.569000000    -6.919000000
H    -0.629000000     1.881000000    -7.608000000
H    -1.474000000     0.692000000    -7.204000000
O    -0.054000000     0.895000000     5.543000000
H     0.218000000     0.161000000     6.094000000
H     0.732000000     1.126000000     5.047000000
O    -3.168000000     3.476000000    -2.230000000
H    -2.983000000     2.921000000    -2.988000000
H    -3.443000000     2.864000000    -1.547000000
