158
-3039.03930
C     1.103000000    -0.874000000    -0.429000000
H     1.749000000    -1.608000000    -0.905000000
C     0.220000000    -0.148000000    -1.325000000
H     0.331000000    -0.276000000    -2.398000000
C    -0.654000000     0.715000000    -0.766000000
H    -1.189000000     1.362000000    -1.475000000
C    -0.863000000     0.769000000     0.608000000
H    -1.652000000     1.365000000     1.058000000
C     0.020000000     0.031000000     1.419000000
H    -0.216000000    -0.027000000     2.479000000
C     1.024000000    -0.759000000     0.934000000
C     1.726000000    -1.735000000     1.852000000
O     2.320000000    -2.674000000     1.378000000
O     1.491000000    -1.736000000     3.073000000
O     2.552000000     3.062000000     2.292000000
H     2.286000000     2.715000000     1.440000000
H     1.777000000     2.960000000     2.844000000
O    -2.560000000     3.981000000    -2.808000000
H    -3.088000000     4.378000000    -3.501000000
H    -2.001000000     3.352000000    -3.264000000
O    -3.239000000     2.723000000     3.186000000
H    -2.708000000     2.771000000     3.981000000
H    -2.733000000     3.205000000     2.532000000
O     3.602000000    -2.750000000     4.546000000
H     4.298000000    -2.478000000     3.947000000
H     2.798000000    -2.423000000     4.142000000
O    -0.181000000    -4.420000000    -1.844000000
H     0.658000000    -4.144000000    -2.213000000
H    -0.574000000    -4.967000000    -2.523000000
O     1.002000000     1.807000000     6.798000000
H     0.107000000     2.084000000     6.604000000
H     1.128000000     1.017000000     6.272000000
O    -1.837000000    -3.248000000    -4.662000000
H    -2.130000000    -3.912000000    -5.286000000
H    -0.884000000    -3.238000000    -4.753000000
O    -4.333000000    -0.063000000    -5.875000000
H    -4.579000000     0.788000000    -5.513000000
H    -4.493000000     0.021000000    -6.815000000
O     5.273000000    -1.234000000     6.051000000
H     4.893000000    -2.081000000     5.816000000
H     6.087000000    -1.190000000     5.550000000
O    -0.924000000     2.010000000    -4.323000000
H    -1.309000000     1.178000000    -4.046000000
H     0.020000000     1.873000000    -4.248000000
O    -1.137000000    -6.343000000     0.662000000
H    -0.936000000    -6.462000000    -0.266000000
H    -0.490000000    -5.708000000     0.968000000
O    -5.714000000     2.869000000     0.018000000
H    -5.211000000     2.180000000    -0.416000000
H    -5.794000000     2.571000000     0.925000000
O    -0.048000000    -5.045000000     6.251000000
H    -0.430000000    -4.600000000     5.495000000
H     0.317000000    -5.854000000     5.893000000
O     4.324000000     0.538000000     2.299000000
H     3.509000000     0.759000000     2.749000000
H     4.701000000     1.384000000     2.057000000
O     2.058000000     2.106000000    -4.578000000
H     1.894000000     1.808000000    -5.473000000
H     2.722000000     1.503000000    -4.243000000
O    -1.908000000    -0.587000000    -4.140000000
H    -2.563000000    -0.487000000    -4.831000000
H    -1.671000000    -1.514000000    -4.168000000
O    -1.894000000    -2.446000000    -0.091000000
H    -1.188000000    -1.851000000     0.164000000
H    -1.484000000    -3.053000000    -0.707000000
O    -4.259000000    -1.667000000     5.199000000
H    -3.981000000    -1.994000000     4.343000000
H    -4.813000000    -0.913000000     4.998000000
O    -0.937000000     3.952000000     1.740000000
H    -0.685000000     3.731000000     0.844000000
H    -1.096000000     4.896000000     1.718000000
O    -3.850000000     0.313000000     2.269000000
H    -4.291000000     0.682000000     1.504000000
H    -3.726000000     1.059000000     2.857000000
O    -0.497000000     4.516000000    -0.913000000
H    -0.392000000     5.446000000    -0.713000000
H    -1.003000000     4.502000000    -1.726000000
O     2.949000000    -4.022000000    -0.850000000
H     2.489000000    -3.614000000    -0.116000000
H     3.012000000    -4.946000000    -0.609000000
O    -2.253000000     3.533000000    -6.362000000
H    -1.518000000     3.125000000    -5.905000000
H    -1.909000000     4.374000000    -6.665000000
O     5.786000000    -2.366000000    -1.713000000
H     5.497000000    -3.176000000    -1.292000000
H     5.272000000    -1.679000000    -1.290000000
O     4.062000000    -0.046000000    -3.911000000
H     3.856000000     0.309000000    -3.046000000
H     3.443000000    -0.766000000    -4.028000000
O     5.278000000    -6.838000000     1.289000000
H     6.157000000    -7.147000000     1.508000000
H     5.310000000    -5.894000000     1.447000000
O     4.407000000    -1.506000000     0.502000000
H     3.604000000    -1.968000000     0.742000000
H     4.533000000    -0.865000000     1.201000000
O    -2.685000000    -1.907000000     2.650000000
H    -2.632000000    -2.246000000     1.757000000
H    -2.968000000    -0.998000000     2.545000000
O     3.392000000    -5.162000000     5.686000000
H     3.313000000    -4.330000000     5.219000000
H     3.340000000    -5.827000000     4.999000000
O    -1.505000000     2.932000000     5.734000000
H    -1.885000000     2.698000000     6.580000000
H    -1.318000000     3.868000000     5.806000000
O     2.093000000     0.656000000     3.886000000
H     1.241000000     1.090000000     3.839000000
H     1.889000000    -0.278000000     3.843000000
O     4.563000000     1.291000000     5.481000000
H     5.056000000     0.473000000     5.553000000
H     3.702000000     1.024000000     5.158000000
O    -4.337000000     0.550000000    -0.648000000
H    -3.772000000     0.541000000    -1.420000000
H    -4.904000000    -0.213000000    -0.757000000
O     2.505000000    -2.970000000     7.348000000
H     1.560000000    -3.122000000     7.312000000
H     2.882000000    -3.693000000     6.847000000
O     1.509000000     2.313000000    -0.148000000
H     0.853000000     1.622000000    -0.238000000
H     1.119000000     3.072000000    -0.581000000
O     0.743000000    -4.855000000     1.921000000
H     1.449000000    -4.223000000     1.790000000
H     0.305000000    -4.563000000     2.720000000
O     0.824000000    -2.873000000    -5.201000000
H     1.715000000    -3.195000000    -5.062000000
H     0.805000000    -2.613000000    -6.122000000
O     3.969000000     1.615000000    -1.696000000
H     4.697000000     2.167000000    -1.412000000
H     3.369000000     1.608000000    -0.951000000
O    -4.610000000    -2.572000000    -0.686000000
H    -4.526000000    -3.109000000    -1.474000000
H    -3.709000000    -2.367000000    -0.439000000
O     6.331000000    -5.336000000    -1.272000000
H     6.103000000    -6.227000000    -1.007000000
H     6.083000000    -4.793000000    -0.523000000
O    -4.699000000     2.511000000    -5.475000000
H    -5.234000000     3.288000000    -5.310000000
H    -3.827000000     2.857000000    -5.665000000
O     5.836000000    -3.945000000     1.196000000
H     5.604000000    -3.023000000     1.084000000
H     6.436000000    -3.952000000     1.942000000
O     0.909000000     4.965000000    -3.468000000
H     1.719000000     5.114000000    -2.980000000
H     0.861000000     4.014000000    -3.567000000
O     0.154000000     2.537000000     3.646000000
H    -0.328000000     3.029000000     2.981000000
H    -0.372000000     2.631000000     4.440000000
O    -4.487000000     4.996000000    -1.230000000
H    -4.841000000     4.568000000    -0.451000000
H    -3.895000000     4.348000000    -1.611000000
O     0.447000000    -6.932000000     4.279000000
H     0.623000000    -6.569000000     3.410000000
H     0.569000000    -7.875000000     4.173000000
O     1.786000000    -6.423000000    -0.568000000
H     1.025000000    -6.464000000    -1.146000000
H     1.447000000    -6.057000000     0.249000000
O    -0.502000000    -3.536000000     4.012000000
H     0.185000000    -2.897000000     3.821000000
H    -1.314000000    -3.097000000     3.759000000
