158
-3032.58763
C     0.830000000    -1.109000000    -0.237000000
H     1.415000000    -1.946000000    -0.610000000
C    -0.055000000    -0.551000000    -1.142000000
H    -0.042000000    -0.875000000    -2.179000000
C    -0.735000000     0.581000000    -0.827000000
H    -1.275000000     1.115000000    -1.646000000
C    -0.705000000     1.050000000     0.555000000
H    -1.191000000     1.951000000     0.922000000
C     0.165000000     0.486000000     1.462000000
H     0.125000000     0.844000000     2.488000000
C     0.999000000    -0.606000000     1.061000000
C     1.940000000    -1.392000000     1.994000000
O     2.557000000    -2.327000000     1.576000000
O     1.977000000    -1.069000000     3.179000000
O     3.886000000     2.994000000     2.972000000
H     3.143000000     3.556000000     3.192000000
H     4.653000000     3.553000000     3.092000000
O     0.199000000     3.652000000    -2.826000000
H    -0.505000000     4.169000000    -3.217000000
H     0.197000000     2.833000000    -3.321000000
O    -4.633000000     4.225000000     0.434000000
H    -4.601000000     3.271000000     0.359000000
H    -3.777000000     4.518000000     0.124000000
O     2.628000000    -4.192000000     3.431000000
H     2.637000000    -3.865000000     4.330000000
H     2.637000000    -3.403000000     2.889000000
O     0.296000000    -4.259000000    -3.882000000
H    -0.014000000    -3.707000000    -4.600000000
H     0.258000000    -5.150000000    -4.231000000
O     1.799000000     1.027000000     6.966000000
H     0.996000000     0.524000000     6.833000000
H     2.225000000     1.030000000     6.109000000
O    -2.526000000     4.750000000     2.980000000
H    -1.766000000     4.679000000     2.402000000
H    -3.031000000     5.480000000     2.624000000
O     7.035000000    -1.895000000     4.441000000
H     6.739000000    -1.188000000     5.014000000
H     6.423000000    -1.879000000     3.705000000
O     0.023000000     1.246000000    -4.370000000
H    -0.102000000     1.303000000    -5.317000000
H     0.925000000     0.942000000    -4.265000000
O    -3.850000000     1.834000000    -0.478000000
H    -4.382000000     1.051000000    -0.337000000
H    -3.038000000     1.661000000    -0.003000000
O     4.544000000    -1.941000000    -4.654000000
H     4.099000000    -2.512000000    -4.028000000
H     4.009000000    -1.991000000    -5.446000000
O    -6.043000000     1.604000000     2.716000000
H    -5.150000000     1.263000000     2.684000000
H    -5.977000000     2.399000000     3.246000000
O     5.807000000     0.633000000     3.626000000
H     5.091000000     1.267000000     3.661000000
H     6.444000000     1.023000000     3.028000000
O    -4.590000000     4.817000000    -2.641000000
H    -4.763000000     3.898000000    -2.438000000
H    -4.420000000     5.223000000    -1.791000000
O    -3.636000000    -0.239000000     1.743000000
H    -2.911000000    -0.861000000     1.806000000
H    -4.233000000    -0.630000000     1.106000000
O     2.526000000     0.296000000    -4.107000000
H     3.140000000     0.092000000    -3.402000000
H     2.744000000    -0.325000000    -4.802000000
O    -4.973000000    -0.732000000    -0.787000000
H    -4.223000000    -1.111000000    -1.245000000
H    -5.704000000    -1.311000000    -1.003000000
O    -0.896000000     0.796000000    -7.011000000
H    -1.706000000     0.778000000    -7.521000000
H    -0.409000000     0.028000000    -7.308000000
O    -0.470000000    -5.441000000    -1.630000000
H    -0.212000000    -4.876000000    -2.358000000
H    -1.331000000    -5.776000000    -1.881000000
O    -0.326000000     4.686000000     1.269000000
H     0.372000000     5.299000000     1.040000000
H    -0.762000000     4.497000000     0.438000000
O    -1.762000000    -3.300000000     3.910000000
H    -2.659000000    -3.634000000     3.907000000
H    -1.586000000    -3.076000000     2.996000000
O    -4.221000000     3.220000000     4.572000000
H    -3.975000000     2.310000000     4.737000000
H    -3.469000000     3.592000000     4.111000000
O     1.631000000     3.186000000    -0.336000000
H     1.297000000     2.686000000    -1.080000000
H     0.951000000     3.103000000     0.333000000
O     3.571000000    -4.130000000    -0.347000000
H     3.100000000    -3.459000000     0.148000000
H     4.389000000    -4.253000000     0.134000000
O    -4.097000000     0.516000000     5.142000000
H    -4.830000000    -0.069000000     5.333000000
H    -3.566000000     0.036000000     4.506000000
O    -1.628000000     5.192000000    -4.403000000
H    -2.279000000     4.743000000    -4.942000000
H    -1.870000000     6.117000000    -4.456000000
O     6.379000000    -1.398000000    -0.866000000
H     6.132000000    -2.238000000    -0.479000000
H     7.251000000    -1.220000000    -0.516000000
O     4.078000000     0.252000000    -1.848000000
H     4.905000000    -0.206000000    -1.695000000
H     3.496000000    -0.070000000    -1.160000000
O     3.635000000    -1.265000000     6.024000000
H     3.332000000    -2.142000000     6.259000000
H     3.234000000    -1.093000000     5.172000000
O     4.955000000    -2.036000000     2.654000000
H     4.086000000    -2.383000000     2.455000000
H     4.849000000    -1.086000000     2.616000000
O    -1.830000000    -2.175000000     1.113000000
H    -1.363000000    -1.557000000     0.552000000
H    -1.198000000    -2.875000000     1.278000000
O     2.083000000     5.653000000    -2.019000000
H     2.142000000     5.896000000    -1.095000000
H     1.583000000     4.837000000    -2.020000000
O    -4.916000000     1.983000000    -2.849000000
H    -4.204000000     2.283000000    -3.415000000
H    -4.474000000     1.556000000    -2.115000000
O     2.587000000     1.141000000     4.390000000
H     2.980000000     1.734000000     3.749000000
H     2.297000000     0.389000000     3.874000000
O    -3.251000000    -1.625000000    -2.526000000
H    -2.336000000    -1.564000000    -2.801000000
H    -3.570000000    -2.430000000    -2.933000000
O     2.327000000    -3.757000000     6.527000000
H     1.793000000    -3.322000000     7.192000000
H     2.030000000    -4.667000000     6.539000000
O     3.716000000    -6.613000000     2.524000000
H     3.484000000    -5.785000000     2.944000000
H     4.672000000    -6.596000000     2.472000000
O    -1.053000000    -1.341000000    -4.571000000
H    -0.638000000    -0.486000000    -4.457000000
H    -1.334000000    -1.351000000    -5.486000000
O    -0.450000000    -0.386000000     7.258000000
H    -1.343000000    -0.577000000     7.544000000
H    -0.365000000    -0.837000000     6.418000000
O    -2.897000000     2.473000000    -4.772000000
H    -2.079000000     2.001000000    -4.925000000
H    -3.446000000     2.249000000    -5.524000000
O     6.213000000    -3.525000000     0.993000000
H     6.058000000    -3.093000000     1.833000000
H     7.078000000    -3.926000000     1.086000000
O     1.078000000     4.166000000     3.626000000
H     0.774000000     4.301000000     2.729000000
H     0.292000000     4.268000000     4.163000000
O    -6.484000000    -0.246000000    -3.576000000
H    -5.936000000    -1.031000000    -3.559000000
H    -5.951000000     0.428000000    -3.156000000
O    -2.143000000     4.365000000    -0.728000000
H    -2.120000000     3.702000000    -1.419000000
H    -1.912000000     5.181000000    -1.172000000
O     3.337000000    -3.630000000    -3.107000000
H     2.485000000    -3.201000000    -3.184000000
H     3.341000000    -3.997000000    -2.223000000
O     1.873000000    -6.814000000    -0.695000000
H     2.537000000    -6.229000000    -0.331000000
H     1.103000000    -6.258000000    -0.813000000
O     0.121000000    -4.243000000     1.422000000
H     0.912000000    -3.744000000     1.216000000
H     0.316000000    -4.665000000     2.259000000
O    -0.212000000    -1.198000000     4.800000000
H    -0.789000000    -1.941000000     4.627000000
H     0.503000000    -1.298000000     4.172000000
