158
-3031.18218
C    -0.978000000    -0.256000000     1.052000000
H    -1.727000000    -0.508000000     1.798000000
C    -1.305000000     0.259000000    -0.195000000
H    -2.340000000     0.555000000    -0.344000000
C    -0.310000000     0.428000000    -1.099000000
H    -0.551000000     0.873000000    -2.022000000
C     1.028000000     0.145000000    -0.788000000
H     1.769000000     0.189000000    -1.582000000
C     1.405000000    -0.416000000     0.394000000
H     2.442000000    -0.682000000     0.583000000
C     0.376000000    -0.590000000     1.375000000
C     0.733000000    -1.101000000     2.744000000
O    -0.086000000    -1.731000000     3.416000000
O     1.841000000    -0.823000000     3.155000000
O     2.634000000     3.570000000     5.064000000
H     2.091000000     4.161000000     5.586000000
H     2.081000000     3.332000000     4.319000000
O    -2.580000000     4.596000000    -1.484000000
H    -2.650000000     5.467000000    -1.092000000
H    -3.181000000     4.054000000    -0.973000000
O    -0.339000000    -2.169000000     6.290000000
H    -0.370000000    -2.365000000     5.354000000
H    -1.183000000    -1.759000000     6.478000000
O     5.011000000     0.477000000     0.413000000
H     4.850000000    -0.033000000     1.207000000
H     5.806000000     0.974000000     0.605000000
O    -0.421000000     0.748000000    -6.765000000
H    -0.810000000     0.002000000    -7.223000000
H    -0.202000000     0.410000000    -5.897000000
O    -1.093000000     0.756000000     4.610000000
H    -0.333000000     0.198000000     4.448000000
H    -1.379000000     0.521000000     5.493000000
O     1.567000000    -0.388000000     7.916000000
H     0.823000000    -0.826000000     7.503000000
H     2.200000000    -0.272000000     7.208000000
O    -2.849000000    -3.350000000    -0.997000000
H    -2.350000000    -3.875000000    -1.623000000
H    -2.356000000    -3.421000000    -0.179000000
O    -5.427000000     3.883000000    -4.104000000
H    -6.347000000     4.122000000    -4.212000000
H    -5.435000000     3.187000000    -3.447000000
O     2.259000000    -5.064000000     0.478000000
H     2.274000000    -5.356000000     1.389000000
H     1.342000000    -5.145000000     0.216000000
O    -0.001000000     4.821000000    -2.924000000
H     0.135000000     5.708000000    -3.258000000
H    -0.879000000     4.841000000    -2.545000000
O     1.250000000    -0.947000000    -5.179000000
H     1.117000000    -1.736000000    -4.654000000
H     1.975000000    -1.167000000    -5.764000000
O     2.596000000     3.484000000    -1.736000000
H     2.879000000     2.652000000    -2.117000000
H     2.353000000     4.021000000    -2.490000000
O    -2.418000000     5.058000000     2.544000000
H    -2.469000000     4.142000000     2.271000000
H    -2.397000000     5.552000000     1.725000000
O     0.749000000    -4.215000000     3.820000000
H     0.093000000    -4.651000000     4.364000000
H     0.343000000    -3.384000000     3.575000000
O     4.108000000     1.761000000    -6.082000000
H     3.245000000     1.772000000    -5.669000000
H     4.681000000     1.358000000    -5.430000000
O     1.570000000    -3.724000000     7.630000000
H     0.938000000    -3.110000000     7.256000000
H     1.335000000    -4.570000000     7.249000000
O     0.706000000     2.723000000     3.547000000
H     0.560000000     3.204000000     2.732000000
H    -0.122000000     2.271000000     3.710000000
O    -5.433000000     1.864000000     2.155000000
H    -5.826000000     2.707000000     1.929000000
H    -6.053000000     1.467000000     2.767000000
O     0.013000000     3.056000000    -4.966000000
H    -0.851000000     3.118000000    -5.373000000
H    -0.083000000     3.511000000    -4.130000000
O     4.724000000    -1.101000000     5.368000000
H     4.033000000    -0.618000000     5.822000000
H     4.445000000    -2.016000000     5.412000000
O    -2.721000000     3.739000000    -4.782000000
H    -3.457000000     4.103000000    -4.290000000
H    -2.891000000     2.797000000    -4.806000000
O     2.075000000     1.724000000    -4.383000000
H     1.847000000     0.818000000    -4.593000000
H     1.315000000     2.233000000    -4.663000000
O    -2.242000000    -4.472000000     4.370000000
H    -2.699000000    -4.958000000     3.684000000
H    -2.450000000    -4.943000000     5.177000000
O     0.457000000     2.898000000    -7.626000000
H     0.030000000     2.068000000    -7.419000000
H     0.559000000     3.333000000    -6.779000000
O     2.500000000     0.581000000     5.520000000
H     2.083000000     0.179000000     4.758000000
H     2.558000000     1.510000000     5.299000000
O     3.899000000    -1.151000000    -3.250000000
H     3.345000000    -1.638000000    -3.860000000
H     3.989000000    -1.731000000    -2.493000000
O     3.947000000     2.062000000     2.663000000
H     3.908000000     1.717000000     1.771000000
H     3.295000000     1.553000000     3.146000000
O     4.647000000     3.840000000    -3.907000000
H     4.048000000     3.143000000    -4.177000000
H     5.473000000     3.390000000    -3.729000000
O     0.346000000     4.343000000    -0.113000000
H     0.661000000     3.625000000    -0.663000000
H    -0.449000000     4.000000000     0.295000000
O     4.248000000     1.361000000    -2.041000000
H     4.499000000     1.092000000    -1.157000000
H     4.132000000     0.539000000    -2.518000000
O    -4.583000000    -0.847000000     1.482000000
H    -4.047000000    -1.029000000     2.254000000
H    -4.956000000     0.019000000     1.648000000
O     0.206000000    -3.130000000    -3.936000000
H     0.643000000    -3.817000000    -4.440000000
H    -0.621000000    -2.985000000    -4.395000000
O     5.060000000     3.868000000    -0.334000000
H     4.824000000     4.796000000    -0.346000000
H     4.236000000     3.409000000    -0.493000000
O     4.530000000    -0.917000000     2.610000000
H     4.933000000    -0.823000000     3.473000000
H     3.589000000    -0.924000000     2.785000000
O    -2.765000000     2.607000000     1.610000000
H    -3.567000000     2.264000000     2.004000000
H    -2.121000000     1.909000000     1.729000000
O     6.288000000    -2.155000000    -1.532000000
H     6.073000000    -1.362000000    -1.040000000
H     7.113000000    -1.947000000    -1.972000000
O    -1.414000000    -3.650000000     1.439000000
H    -1.736000000    -3.686000000     2.340000000
H    -0.686000000    -3.029000000     1.469000000
O    -4.910000000     0.097000000    -4.472000000
H    -4.120000000    -0.179000000    -4.007000000
H    -5.360000000    -0.720000000    -4.685000000
O    -2.779000000    -0.961000000    -2.759000000
H    -3.136000000    -1.767000000    -2.387000000
H    -2.233000000    -0.597000000    -2.062000000
O     0.494000000    -2.824000000    -0.968000000
H     0.248000000    -3.140000000    -1.837000000
H    -0.163000000    -2.160000000    -0.759000000
O     2.709000000    -2.810000000     4.705000000
H     2.072000000    -3.486000000     4.472000000
H     2.373000000    -2.013000000     4.294000000
O    -5.380000000    -3.016000000    -0.072000000
H    -4.553000000    -3.022000000    -0.554000000
H    -5.361000000    -2.200000000     0.428000000
O     5.127000000    -3.384000000     1.143000000
H     5.072000000    -2.577000000     1.655000000
H     4.854000000    -3.128000000     0.262000000
O     3.239000000    -2.954000000    -0.965000000
H     3.142000000    -3.689000000    -0.360000000
H     2.357000000    -2.589000000    -1.042000000
O    -3.071000000    -1.767000000     3.861000000
H    -2.134000000    -1.680000000     3.684000000
H    -3.127000000    -2.467000000     4.512000000
O    -2.985000000    -2.854000000    -5.467000000
H    -2.842000000    -3.774000000    -5.246000000
H    -3.904000000    -2.696000000    -5.252000000
O    -2.333000000    -0.398000000     6.896000000
H    -2.562000000    -0.684000000     7.780000000
H    -3.146000000    -0.038000000     6.542000000
