158
-3022.63590
C     0.081000000    -1.367000000     0.535000000
H     0.030000000    -2.404000000     0.858000000
C    -0.750000000    -0.946000000    -0.512000000
H    -1.573000000    -1.581000000    -0.828000000
C    -0.737000000     0.394000000    -0.845000000
H    -1.437000000     0.773000000    -1.575000000
C     0.232000000     1.261000000    -0.376000000
H     0.058000000     2.272000000    -0.735000000
C     1.155000000     0.785000000     0.572000000
H     1.980000000     1.471000000     0.745000000
C     1.088000000    -0.576000000     1.010000000
C     2.037000000    -1.116000000     2.004000000
O     1.906000000    -2.219000000     2.435000000
O     2.906000000    -0.379000000     2.412000000
O     2.620000000     2.783000000    -2.323000000
H     2.809000000     2.681000000    -1.391000000
H     2.360000000     1.908000000    -2.613000000
O     4.287000000    -2.174000000     4.267000000
H     3.618000000    -2.188000000     3.582000000
H     5.075000000    -1.855000000     3.826000000
O     0.687000000    -4.166000000    -2.993000000
H     1.253000000    -4.679000000    -2.418000000
H     0.931000000    -3.256000000    -2.821000000
O     1.738000000     3.698000000     5.040000000
H     1.551000000     4.508000000     4.565000000
H     1.499000000     3.002000000     4.428000000
O    -4.906000000    -3.036000000    -1.976000000
H    -4.586000000    -3.615000000    -2.668000000
H    -5.802000000    -3.331000000    -1.813000000
O    -0.285000000    -4.850000000     5.037000000
H    -0.380000000    -5.694000000     5.479000000
H     0.403000000    -4.399000000     5.526000000
O    -2.460000000     4.461000000     2.135000000
H    -3.076000000     4.471000000     1.403000000
H    -2.008000000     3.621000000     2.056000000
O     2.152000000    -4.477000000     6.322000000
H     2.763000000    -5.011000000     5.816000000
H     2.383000000    -3.575000000     6.101000000
O     7.940000000    -0.530000000     3.679000000
H     7.054000000    -0.400000000     3.339000000
H     8.358000000    -1.110000000     3.042000000
O    -7.538000000     0.574000000    -3.090000000
H    -6.641000000     0.404000000    -3.377000000
H    -7.823000000     1.319000000    -3.619000000
O    -1.051000000    -5.928000000    -2.087000000
H    -0.506000000    -5.219000000    -2.429000000
H    -0.512000000    -6.713000000    -2.183000000
O    -1.438000000     3.673000000    -5.110000000
H    -0.616000000     3.321000000    -5.453000000
H    -1.730000000     3.021000000    -4.472000000
O    -4.254000000     3.341000000     0.107000000
H    -3.870000000     2.519000000    -0.197000000
H    -4.346000000     3.871000000    -0.685000000
O     6.467000000     2.488000000     3.443000000
H     6.235000000     3.396000000     3.635000000
H     5.643000000     2.008000000     3.522000000
O    -7.355000000     0.290000000    -0.350000000
H    -7.474000000     0.734000000    -1.189000000
H    -6.447000000    -0.011000000    -0.365000000
O     1.305000000     5.318000000    -0.261000000
H     2.237000000     5.242000000    -0.464000000
H     0.862000000     4.981000000    -1.040000000
O    -3.946000000    -2.520000000     2.769000000
H    -4.201000000    -3.021000000     1.995000000
H    -3.461000000    -3.144000000     3.309000000
O     2.214000000    -5.252000000    -0.965000000
H     2.436000000    -6.082000000    -0.543000000
H     2.742000000    -4.600000000    -0.503000000
O     4.493000000    -4.837000000     5.067000000
H     4.406000000    -3.886000000     5.000000000
H     5.191000000    -4.969000000     5.709000000
O     3.748000000     4.365000000     2.079000000
H     3.064000000     4.816000000     2.573000000
H     3.897000000     4.922000000     1.315000000
O    -0.984000000    -0.584000000     4.360000000
H    -1.584000000    -0.990000000     3.734000000
H    -1.549000000    -0.064000000     4.932000000
O    -0.240000000     5.172000000    -2.495000000
H    -1.088000000     5.529000000    -2.232000000
H    -0.294000000     5.101000000    -3.448000000
O     0.807000000     2.319000000    -5.558000000
H     1.759000000     2.399000000    -5.488000000
H     0.598000000     1.519000000    -5.078000000
O     3.724000000    -3.430000000     0.481000000
H     3.205000000    -3.586000000     1.271000000
H     4.628000000    -3.583000000     0.754000000
O    -2.587000000    -4.762000000     3.771000000
H    -1.800000000    -4.688000000     4.311000000
H    -2.270000000    -5.087000000     2.929000000
O     3.894000000     1.503000000     3.620000000
H     3.604000000     0.715000000     3.161000000
H     3.403000000     2.215000000     3.209000000
O     0.277000000    -7.078000000     1.170000000
H     0.651000000    -6.364000000     1.686000000
H     0.809000000    -7.101000000     0.374000000
O    -4.263000000    -4.018000000     0.653000000
H    -3.323000000    -4.123000000     0.507000000
H    -4.540000000    -3.386000000    -0.011000000
O     5.465000000    -0.693000000     1.727000000
H     5.732000000    -0.480000000     0.832000000
H     4.514000000    -0.577000000     1.727000000
O     6.134000000     3.491000000     0.215000000
H     5.434000000     3.448000000     0.866000000
H     6.185000000     2.604000000    -0.142000000
O    -1.487000000    -4.345000000     0.571000000
H    -1.245000000    -4.924000000    -0.152000000
H    -0.759000000    -4.414000000     1.188000000
O    -5.053000000     1.175000000     2.050000000
H    -4.248000000     1.665000000     1.879000000
H    -5.740000000     1.842000000     2.065000000
O    -4.430000000     1.503000000    -2.107000000
H    -3.736000000     1.480000000    -2.766000000
H    -4.333000000     0.681000000    -1.627000000
O    -2.038000000     1.630000000     1.962000000
H    -1.289000000     1.220000000     2.395000000
H    -2.088000000     1.197000000     1.110000000
O    -5.982000000     3.494000000    -3.229000000
H    -6.064000000     3.321000000    -4.167000000
H    -5.676000000     2.665000000    -2.859000000
O     3.148000000    -0.904000000     6.837000000
H     2.760000000    -1.258000000     6.037000000
H     3.610000000    -0.116000000     6.550000000
O     4.340000000     1.431000000     6.240000000
H     4.312000000     1.435000000     5.284000000
H     4.027000000     2.300000000     6.492000000
O     0.569000000    -4.491000000     2.342000000
H     0.264000000    -4.669000000     3.232000000
H     1.108000000    -3.705000000     2.426000000
O    -2.393000000     1.295000000    -3.916000000
H    -1.976000000     0.438000000    -3.828000000
H    -2.780000000     1.285000000    -4.792000000
O    -1.535000000    -1.215000000    -4.152000000
H    -1.763000000    -1.871000000    -4.810000000
H    -0.952000000    -1.675000000    -3.548000000
O     1.446000000    -1.666000000    -2.359000000
H     1.268000000    -1.114000000    -3.121000000
H     1.277000000    -1.098000000    -1.607000000
O     6.186000000    -3.545000000     1.595000000
H     6.945000000    -3.626000000     2.173000000
H     6.198000000    -2.632000000     1.310000000
O    -4.585000000    -0.556000000    -0.655000000
H    -4.830000000    -1.465000000    -0.828000000
H    -4.322000000    -0.549000000     0.265000000
O     6.220000000     0.960000000    -0.747000000
H     7.137000000     0.741000000    -0.914000000
H     5.728000000     0.219000000    -1.103000000
O    -3.301000000     6.022000000    -0.765000000
H    -4.156000000     6.253000000    -0.402000000
H    -3.380000000     6.207000000    -1.701000000
O     5.181000000    -1.447000000    -1.258000000
H     5.646000000    -1.794000000    -2.019000000
H     4.703000000    -2.198000000    -0.905000000
O     1.396000000    -1.982000000     5.073000000
H     1.598000000    -2.093000000     4.144000000
H     0.473000000    -1.730000000     5.089000000
O     0.796000000     1.284000000     4.011000000
H     0.159000000     0.682000000     4.395000000
H     1.538000000     0.728000000     3.775000000
