158
-3051.15219
C     1.118000000    -0.544000000    -0.790000000
H     1.988000000    -0.792000000    -1.392000000
C     1.074000000     0.708000000    -0.090000000
H     1.968000000     1.323000000    -0.021000000
C    -0.090000000     1.170000000     0.468000000
H    -0.215000000     2.132000000     0.983000000
C    -1.181000000     0.308000000     0.450000000
H    -2.096000000     0.663000000     0.918000000
C    -1.172000000    -1.014000000    -0.143000000
H    -2.107000000    -1.566000000    -0.181000000
C     0.057000000    -1.464000000    -0.715000000
C     0.265000000    -2.863000000    -1.104000000
O    -0.366000000    -3.773000000    -0.634000000
O     1.080000000    -3.041000000    -1.978000000
O    -5.541000000    -2.860000000    -0.845000000
H    -5.712000000    -2.062000000    -1.345000000
H    -4.588000000    -2.945000000    -0.848000000
O     2.331000000    -3.363000000    -6.961000000
H     2.217000000    -3.623000000    -6.047000000
H     3.136000000    -3.803000000    -7.236000000
O    -1.902000000     1.200000000    -2.444000000
H    -1.748000000     0.861000000    -3.326000000
H    -1.221000000     0.793000000    -1.909000000
O     3.702000000     4.874000000     1.356000000
H     3.108000000     4.145000000     1.536000000
H     4.552000000     4.576000000     1.680000000
O    -4.241000000     0.920000000    -1.031000000
H    -4.777000000     0.383000000    -1.613000000
H    -3.375000000     0.927000000    -1.439000000
O    -5.707000000    -0.948000000    -2.599000000
H    -6.096000000    -0.236000000    -3.107000000
H    -5.551000000    -1.642000000    -3.239000000
O    -0.284000000    -0.885000000    -4.337000000
H     0.371000000    -1.428000000    -3.898000000
H     0.146000000    -0.037000000    -4.449000000
O     2.288000000     2.911000000     2.445000000
H     2.559000000     2.172000000     2.990000000
H     1.358000000     2.756000000     2.278000000
O     2.561000000     7.389000000     2.237000000
H     2.585000000     6.452000000     2.042000000
H     3.468000000     7.614000000     2.444000000
O    -2.453000000    -6.624000000    -1.210000000
H    -1.498000000    -6.644000000    -1.271000000
H    -2.741000000    -7.390000000    -1.707000000
O    -1.890000000     4.644000000     0.262000000
H    -2.493000000     4.689000000    -0.480000000
H    -1.036000000     4.867000000    -0.110000000
O     2.858000000    -5.482000000    -3.394000000
H     2.219000000    -4.911000000    -3.821000000
H     3.679000000    -4.990000000    -3.428000000
O    -2.821000000     1.374000000     4.623000000
H    -2.297000000     1.592000000     3.852000000
H    -2.843000000     2.183000000     5.134000000
O     0.972000000    -8.546000000    -0.438000000
H     0.173000000    -9.041000000    -0.617000000
H     0.781000000    -7.661000000    -0.750000000
O    -1.234000000    -4.288000000     1.829000000
H    -2.033000000    -3.761000000     1.793000000
H    -0.982000000    -4.402000000     0.913000000
O    -5.189000000     6.171000000     2.018000000
H    -5.333000000     6.229000000     2.963000000
H    -4.819000000     5.299000000     1.885000000
O    -2.126000000    -2.237000000    -5.643000000
H    -1.751000000    -1.556000000    -5.085000000
H    -2.301000000    -1.795000000    -6.474000000
O     1.058000000    -3.739000000    -4.567000000
H     0.189000000    -3.513000000    -4.899000000
H     1.004000000    -3.576000000    -3.625000000
O    -4.667000000     3.531000000     2.998000000
H    -3.754000000     3.551000000     2.710000000
H    -4.957000000     2.638000000     2.811000000
O     5.083000000    -1.809000000     0.741000000
H     4.664000000    -2.196000000    -0.028000000
H     4.791000000    -2.353000000     1.472000000
O     4.936000000     0.817000000     1.523000000
H     4.338000000     0.803000000     2.270000000
H     4.742000000     0.010000000     1.046000000
O    -5.273000000     0.007000000     4.043000000
H    -5.494000000     0.607000000     4.756000000
H    -5.297000000    -0.861000000     4.444000000
O    -3.036000000    -1.252000000     3.152000000
H    -3.376000000    -0.504000000     3.644000000
H    -3.667000000    -1.378000000     2.443000000
O     1.554000000     4.268000000    -3.954000000
H     1.149000000     5.055000000    -4.319000000
H     1.831000000     4.527000000    -3.075000000
O     1.018000000     1.523000000    -4.263000000
H     0.931000000     1.604000000    -5.213000000
H     0.986000000     2.424000000    -3.942000000
O     6.157000000     3.144000000     0.831000000
H     6.779000000     2.989000000     1.542000000
H     5.679000000     2.319000000     0.747000000
O    -4.843000000     3.712000000    -0.683000000
H    -4.437000000     2.855000000    -0.814000000
H    -5.319000000     3.628000000     0.143000000
O    -1.754000000     3.178000000     2.385000000
H    -1.186000000     3.707000000     2.946000000
H    -1.718000000     3.610000000     1.532000000
O     4.821000000     3.209000000    -1.516000000
H     5.313000000     3.258000000    -0.697000000
H     4.161000000     2.533000000    -1.359000000
O     2.866000000     4.925000000    -1.259000000
H     3.102000000     4.795000000    -0.341000000
H     3.615000000     4.585000000    -1.750000000
O     2.730000000     0.506000000     3.927000000
H     2.029000000    -0.115000000     4.123000000
H     2.548000000     1.259000000     4.490000000
O    -1.821000000     4.333000000    -2.640000000
H    -1.345000000     4.447000000    -3.463000000
H    -1.863000000     3.385000000    -2.516000000
O     0.454000000     5.770000000    -0.220000000
H     1.146000000     5.301000000    -0.686000000
H     0.885000000     6.553000000     0.122000000
O     3.578000000     5.056000000     4.356000000
H     2.812000000     4.530000000     4.127000000
H     3.606000000     5.741000000     3.687000000
O     0.444000000    -6.356000000     2.854000000
H    -0.213000000    -6.991000000     3.139000000
H    -0.066000000    -5.606000000     2.547000000
O     3.352000000     1.176000000    -3.262000000
H     3.807000000     1.825000000    -3.799000000
H     2.432000000     1.260000000    -3.513000000
O     4.164000000    -3.057000000    -4.396000000
H     4.540000000    -2.423000000    -3.785000000
H     4.221000000    -2.630000000    -5.250000000
O     6.990000000     0.545000000    -0.737000000
H     6.862000000     0.222000000     0.155000000
H     6.403000000     0.011000000    -1.272000000
O     0.259000000    -6.260000000    -1.672000000
H     0.905000000    -6.146000000    -2.369000000
H     0.134000000    -5.380000000    -1.315000000
O     5.215000000    -0.593000000    -2.498000000
H     4.652000000    -1.314000000    -2.215000000
H     4.610000000     0.126000000    -2.679000000
O     0.153000000    -0.969000000     3.660000000
H    -0.739000000    -1.314000000     3.701000000
H     0.359000000    -0.949000000     2.725000000
O     3.577000000    -3.050000000    -1.030000000
H     4.050000000    -3.878000000    -0.956000000
H     2.736000000    -3.289000000    -1.422000000
O    -2.957000000    -4.072000000    -0.759000000
H    -2.842000000    -5.022000000    -0.734000000
H    -2.066000000    -3.724000000    -0.794000000
O    -4.499000000    -5.217000000    -3.061000000
H    -4.194000000    -5.939000000    -3.610000000
H    -3.759000000    -5.026000000    -2.484000000
O    -5.340000000    -2.423000000     1.955000000
H    -5.313000000    -2.388000000     0.999000000
H    -6.228000000    -2.147000000     2.181000000
O     1.705000000     2.868000000     5.463000000
H     1.094000000     3.297000000     4.863000000
H     1.269000000     2.904000000     6.314000000
O     0.100000000     4.732000000     3.780000000
H    -0.146000000     4.787000000     4.703000000
H     0.079000000     5.638000000     3.471000000
O    -5.293000000     1.453000000     1.517000000
H    -5.184000000     0.771000000     2.180000000
H    -4.757000000     1.158000000     0.780000000
