158
-3021.20398
C    -0.440000000    -1.209000000    -0.749000000
H    -0.780000000    -1.964000000    -1.452000000
C     0.500000000    -0.281000000    -1.208000000
H     0.906000000    -0.295000000    -2.216000000
C     0.688000000     0.840000000    -0.432000000
H     1.390000000     1.608000000    -0.848000000
C     0.198000000     0.962000000     0.856000000
H     0.443000000     1.832000000     1.461000000
C    -0.541000000    -0.054000000     1.326000000
H    -0.930000000     0.086000000     2.331000000
C    -1.046000000    -1.052000000     0.484000000
C    -2.096000000    -2.070000000     0.887000000
O    -2.079000000    -3.162000000     0.458000000
O    -2.833000000    -1.744000000     1.815000000
O     0.188000000     5.579000000     2.361000000
H     0.792000000     5.897000000     3.033000000
H    -0.453000000     5.058000000     2.844000000
O     6.015000000     1.905000000     2.702000000
H     5.148000000     1.744000000     3.074000000
H     5.895000000     1.798000000     1.759000000
O    -2.011000000     2.853000000     0.097000000
H    -1.583000000     2.188000000    -0.443000000
H    -1.469000000     2.907000000     0.884000000
O    -4.153000000    -0.126000000    -2.423000000
H    -5.076000000     0.071000000    -2.579000000
H    -4.159000000    -0.986000000    -2.001000000
O     2.328000000    -0.686000000     3.272000000
H     2.627000000    -0.044000000     3.916000000
H     1.725000000    -1.249000000     3.757000000
O    -4.839000000    -1.744000000     3.633000000
H    -4.074000000    -1.791000000     3.060000000
H    -5.508000000    -2.259000000     3.182000000
O    -5.766000000     2.710000000     3.254000000
H    -5.342000000     1.925000000     2.907000000
H    -6.458000000     2.375000000     3.825000000
O    -1.479000000    -5.944000000     0.203000000
H    -0.778000000    -5.990000000    -0.447000000
H    -1.630000000    -5.007000000     0.326000000
O     3.303000000     2.054000000     3.658000000
H     2.792000000     1.829000000     2.880000000
H     2.691000000     1.945000000     4.386000000
O     1.740000000     1.225000000     5.886000000
H     2.409000000     0.911000000     6.494000000
H     0.961000000     1.348000000     6.428000000
O     4.926000000    -1.564000000     3.535000000
H     5.407000000    -2.099000000     2.903000000
H     4.061000000    -1.448000000     3.142000000
O     2.638000000    -2.645000000    -2.185000000
H     2.630000000    -1.974000000    -1.503000000
H     2.700000000    -2.154000000    -3.004000000
O    -3.857000000    -6.955000000     1.319000000
H    -4.119000000    -6.124000000     1.714000000
H    -3.103000000    -6.733000000     0.772000000
O    -2.914000000    -4.240000000     4.896000000
H    -2.427000000    -5.020000000     5.161000000
H    -2.833000000    -4.221000000     3.942000000
O    -0.192000000     0.539000000    -4.456000000
H    -0.063000000     0.067000000    -5.278000000
H     0.568000000     1.117000000    -4.389000000
O    -4.972000000     2.128000000    -0.399000000
H    -4.733000000     1.963000000     0.513000000
H    -4.225000000     1.805000000    -0.904000000
O    -6.066000000    -1.905000000    -0.147000000
H    -5.459000000    -2.127000000    -0.854000000
H    -5.726000000    -1.085000000     0.211000000
O     1.025000000     3.302000000    -5.204000000
H     0.315000000     3.250000000    -4.565000000
H     1.821000000     3.344000000    -4.675000000
O    -2.405000000    -2.007000000     6.610000000
H    -2.651000000    -2.822000000     6.173000000
H    -3.005000000    -1.353000000     6.251000000
O    -2.014000000     1.452000000    -2.308000000
H    -2.890000000     1.067000000    -2.300000000
H    -1.488000000     0.840000000    -2.823000000
O    -3.337000000     0.606000000    -5.765000000
H    -2.863000000    -0.046000000    -5.248000000
H    -3.910000000     1.042000000    -5.134000000
O     3.210000000    -1.347000000    -4.991000000
H     2.543000000    -1.621000000    -5.621000000
H     3.587000000    -0.554000000    -5.371000000
O     2.121000000     7.419000000    -1.151000000
H     2.153000000     8.021000000    -1.894000000
H     1.536000000     7.844000000    -0.523000000
O    -4.577000000    -5.391000000    -1.574000000
H    -4.508000000    -5.284000000    -0.625000000
H    -4.027000000    -6.149000000    -1.770000000
O     3.494000000    -0.987000000     0.894000000
H     3.123000000    -0.838000000     1.764000000
H     4.065000000    -0.233000000     0.744000000
O    -2.077000000     4.182000000     3.637000000
H    -2.108000000     3.889000000     4.548000000
H    -2.834000000     4.760000000     3.546000000
O    -2.805000000    -1.801000000    -4.823000000
H    -2.188000000    -1.763000000    -4.092000000
H    -3.146000000    -2.695000000    -4.801000000
O    -1.612000000     3.776000000    -3.840000000
H    -1.549000000     3.110000000    -3.155000000
H    -1.841000000     3.286000000    -4.630000000
O    -0.856000000    -7.320000000     2.760000000
H    -1.262000000    -6.826000000     2.047000000
H    -1.346000000    -7.060000000     3.540000000
O    -4.414000000    -0.110000000     5.643000000
H    -3.657000000     0.138000000     5.112000000
H    -4.904000000    -0.720000000     5.092000000
O    -5.777000000    -4.410000000     5.763000000
H    -5.619000000    -3.952000000     6.589000000
H    -5.153000000    -4.021000000     5.150000000
O    -3.987000000    -2.645000000    -1.421000000
H    -3.904000000    -3.432000000    -1.959000000
H    -3.326000000    -2.751000000    -0.737000000
O     3.861000000     5.326000000     2.749000000
H     3.306000000     5.777000000     3.384000000
H     3.381000000     5.391000000     1.923000000
O     3.185000000     3.721000000    -3.679000000
H     3.716000000     2.940000000    -3.523000000
H     3.699000000     4.242000000    -4.295000000
O     4.122000000     3.516000000    -1.026000000
H     3.604000000     3.980000000    -0.368000000
H     3.546000000     3.459000000    -1.788000000
O    -3.107000000     5.345000000    -0.366000000
H    -2.876000000     4.424000000    -0.239000000
H    -3.804000000     5.506000000     0.270000000
O     2.356000000     5.181000000     0.482000000
H     2.391000000     6.001000000    -0.011000000
H     1.460000000     5.142000000     0.817000000
O     4.815000000    -3.956000000    -0.917000000
H     4.155000000    -4.511000000    -0.501000000
H     4.309000000    -3.287000000    -1.378000000
O     1.738000000    -3.356000000     0.725000000
H     1.202000000    -3.045000000     1.455000000
H     2.326000000    -2.626000000     0.532000000
O     4.807000000     0.965000000    -3.041000000
H     4.962000000     0.496000000    -3.861000000
H     5.461000000     0.613000000    -2.437000000
O    -3.861000000    -4.441000000     2.433000000
H    -4.734000000    -4.103000000     2.233000000
H    -3.263000000    -3.781000000     2.084000000
O     6.346000000     4.749000000    -2.191000000
H     5.681000000     4.107000000    -1.942000000
H     5.946000000     5.596000000    -1.998000000
O     0.574000000    -4.800000000    -1.489000000
H     0.934000000    -4.530000000    -0.644000000
H     0.719000000    -4.048000000    -2.063000000
O    -4.057000000     0.928000000     2.222000000
H    -3.314000000     1.515000000     2.081000000
H    -3.672000000     0.052000000     2.230000000
O    -1.999000000     0.122000000     4.592000000
H    -1.470000000     0.851000000     4.917000000
H    -1.363000000    -0.493000000     4.229000000
O     0.822000000    -3.064000000     4.025000000
H     0.776000000    -3.968000000     3.713000000
H     0.766000000    -3.137000000     4.978000000
O     5.267000000     1.220000000     0.258000000
H     5.901000000     1.029000000    -0.433000000
H     4.746000000     1.944000000    -0.089000000
O    -6.683000000    -3.164000000     2.321000000
H    -6.916000000    -4.091000000     2.277000000
H    -6.848000000    -2.834000000     1.437000000
