158
-3051.75746
C    -0.319000000    -1.405000000    -0.338000000
H    -0.491000000    -2.416000000    -0.700000000
C     0.429000000    -0.498000000    -1.115000000
H     0.848000000    -0.860000000    -2.050000000
C     0.696000000     0.767000000    -0.695000000
H     1.344000000     1.379000000    -1.309000000
C     0.220000000     1.196000000     0.512000000
H     0.476000000     2.137000000     0.992000000
C    -0.558000000     0.309000000     1.306000000
H    -0.848000000     0.743000000     2.259000000
C    -0.883000000    -1.006000000     0.908000000
C    -1.731000000    -1.954000000     1.743000000
O    -1.856000000    -3.113000000     1.474000000
O    -2.213000000    -1.548000000     2.757000000
O     1.809000000     3.448000000     4.704000000
H     1.848000000     3.307000000     3.758000000
H     1.779000000     4.399000000     4.803000000
O     2.396000000    -6.086000000     1.244000000
H     1.872000000    -6.540000000     1.904000000
H     2.287000000    -5.157000000     1.450000000
O     6.277000000     0.199000000     0.840000000
H     5.653000000     0.213000000     1.566000000
H     5.744000000     0.367000000     0.063000000
O    -1.055000000     3.751000000    -0.664000000
H    -1.196000000     2.949000000    -1.166000000
H    -0.104000000     3.824000000    -0.591000000
O    -3.754000000    -0.737000000    -2.404000000
H    -4.201000000    -1.221000000    -1.709000000
H    -3.864000000    -1.282000000    -3.183000000
O     3.068000000    -1.158000000     4.772000000
H     3.286000000    -1.566000000     5.610000000
H     2.113000000    -1.203000000     4.724000000
O    -4.333000000    -2.964000000     3.496000000
H    -3.654000000    -2.413000000     3.107000000
H    -4.243000000    -2.825000000     4.439000000
O    -4.698000000     2.503000000     4.723000000
H    -4.083000000     2.086000000     4.119000000
H    -4.875000000     1.834000000     5.385000000
O    -1.212000000    -4.747000000    -0.473000000
H    -2.018000000    -5.205000000    -0.711000000
H    -1.478000000    -4.134000000     0.212000000
O     2.877000000    -3.153000000    -1.260000000
H     3.025000000    -2.537000000    -0.543000000
H     2.837000000    -2.605000000    -2.043000000
O    -2.860000000    -3.489000000     5.650000000
H    -2.249000000    -4.045000000     5.166000000
H    -2.448000000    -3.366000000     6.505000000
O     0.244000000    -1.122000000    -4.573000000
H     1.109000000    -0.899000000    -4.229000000
H    -0.006000000    -1.913000000    -4.097000000
O    -4.120000000     2.174000000     0.591000000
H    -4.110000000     1.489000000     1.260000000
H    -3.598000000     1.816000000    -0.126000000
O     0.475000000     2.714000000    -5.730000000
H    -0.152000000     1.999000000    -5.618000000
H     0.561000000     3.096000000    -4.857000000
O    -3.327000000    -0.657000000     6.152000000
H    -3.025000000    -1.470000000     5.746000000
H    -2.527000000    -0.153000000     6.300000000
O    -1.281000000    -2.688000000    -6.306000000
H    -0.890000000    -2.723000000    -5.433000000
H    -0.551000000    -2.477000000    -6.887000000
O     1.403000000    -4.057000000     4.414000000
H     1.014000000    -4.805000000     3.960000000
H     1.874000000    -4.445000000     5.152000000
O    -2.359000000     1.276000000    -1.254000000
H    -2.712000000     0.741000000    -1.964000000
H    -1.625000000     0.766000000    -0.911000000
O    -1.740000000     0.419000000    -4.934000000
H    -0.905000000    -0.046000000    -4.876000000
H    -2.325000000    -0.194000000    -5.380000000
O    -6.308000000    -0.729000000     1.437000000
H    -6.488000000     0.065000000     1.940000000
H    -7.025000000    -1.323000000     1.660000000
O     3.274000000    -1.588000000    -3.462000000
H     3.753000000    -1.924000000    -4.220000000
H     3.635000000    -0.713000000    -3.320000000
O    -6.798000000    -3.823000000     3.332000000
H    -5.934000000    -3.458000000     3.144000000
H    -6.704000000    -4.229000000     4.194000000
O     1.411000000     6.764000000    -0.532000000
H     1.430000000     5.919000000    -0.983000000
H     0.494000000     7.036000000    -0.574000000
O     1.703000000     4.277000000    -1.344000000
H     1.936000000     4.315000000    -2.272000000
H     2.425000000     3.800000000    -0.935000000
O    -3.507000000    -5.920000000    -0.898000000
H    -3.905000000    -5.743000000    -0.046000000
H    -3.749000000    -6.826000000    -1.092000000
O     2.823000000    -0.784000000     0.765000000
H     1.892000000    -0.686000000     0.564000000
H     3.271000000    -0.341000000     0.044000000
O     0.849000000     6.204000000     2.152000000
H     1.023000000     6.402000000     1.232000000
H     0.888000000     7.053000000     2.591000000
O    -0.844000000    -3.472000000    -3.414000000
H    -0.267000000    -4.136000000    -3.037000000
H    -1.727000000    -3.808000000    -3.265000000
O    -1.688000000     2.634000000    -3.450000000
H    -2.304000000     2.438000000    -2.745000000
H    -1.670000000     1.838000000    -3.981000000
O    -1.160000000     5.811000000    -4.289000000
H    -1.268000000     4.989000000    -3.812000000
H    -1.914000000     5.848000000    -4.877000000
O     0.451000000    -6.361000000     3.088000000
H     0.028000000    -6.844000000     2.378000000
H    -0.273000000    -5.963000000     3.572000000
O    -5.668000000    -1.664000000     6.113000000
H    -5.449000000    -2.329000000     6.766000000
H    -4.856000000    -1.173000000     5.989000000
O     4.892000000     2.553000000    -5.573000000
H     5.231000000     1.677000000    -5.387000000
H     4.122000000     2.400000000    -6.120000000
O    -5.218000000    -2.314000000    -0.446000000
H    -5.007000000    -3.037000000     0.145000000
H    -5.479000000    -1.599000000     0.135000000
O    -0.907000000    -7.638000000     1.205000000
H    -1.748000000    -8.037000000     1.430000000
H    -1.058000000    -7.225000000     0.355000000
O    -3.417000000     4.783000000     0.307000000
H    -3.736000000     3.905000000     0.512000000
H    -2.544000000     4.642000000    -0.060000000
O     2.552000000     4.195000000    -3.838000000
H     3.466000000     3.933000000    -3.728000000
H     2.568000000     4.825000000    -4.559000000
O     4.079000000     3.403000000    -0.258000000
H     3.928000000     2.834000000     0.497000000
H     4.382000000     4.228000000     0.120000000
O     3.467000000     1.728000000     1.923000000
H     3.858000000     0.953000000     2.327000000
H     2.587000000     1.449000000     1.673000000
O     3.059000000    -3.403000000     2.274000000
H     2.468000000    -3.438000000     3.026000000
H     3.095000000    -2.476000000     2.040000000
O    -1.877000000    -4.940000000     3.565000000
H    -2.558000000    -5.606000000     3.465000000
H    -2.046000000    -4.318000000     2.857000000
O     5.563000000     4.380000000    -2.325000000
H     6.405000000     4.156000000    -1.929000000
H     4.916000000     4.158000000    -1.655000000
O     0.800000000    -5.147000000    -2.179000000
H     0.099000000    -5.334000000    -1.555000000
H     1.553000000    -4.920000000    -1.633000000
O    -3.746000000     0.592000000     2.704000000
H    -4.567000000     0.103000000     2.646000000
H    -3.070000000    -0.082000000     2.771000000
O    -0.632000000     0.474000000     6.718000000
H    -0.703000000     1.276000000     6.200000000
H    -0.226000000    -0.159000000     6.126000000
O    -0.173000000    -1.337000000     4.660000000
H     0.338000000    -2.059000000     4.295000000
H    -0.939000000    -1.274000000     4.090000000
O     4.679000000     0.486000000    -1.355000000
H     5.368000000     0.355000000    -2.006000000
H     4.264000000     1.311000000    -1.608000000
O    -4.761000000    -4.551000000     1.284000000
H    -5.428000000    -4.653000000     1.962000000
H    -4.013000000    -4.165000000     1.741000000
