158
-3044.29599
C    -0.977000000     0.928000000    -0.627000000
H    -1.692000000     1.554000000    -1.155000000
C     0.350000000     0.748000000    -1.018000000
H     0.793000000     1.346000000    -1.810000000
C     1.196000000     0.043000000    -0.242000000
H     2.191000000    -0.056000000    -0.451000000
C     0.740000000    -0.688000000     0.893000000
H     1.417000000    -1.196000000     1.575000000
C    -0.671000000    -0.645000000     1.154000000
H    -0.948000000    -1.246000000     2.016000000
C    -1.526000000     0.060000000     0.328000000
C    -3.013000000    -0.044000000     0.521000000
O    -3.757000000     0.159000000    -0.484000000
O    -3.415000000    -0.679000000     1.483000000
O     2.449000000     1.882000000    -4.354000000
H     3.244000000     2.260000000    -4.732000000
H     1.780000000     2.010000000    -5.026000000
O    -1.005000000    -4.540000000    -0.324000000
H    -1.351000000    -5.186000000     0.292000000
H    -1.637000000    -3.821000000    -0.297000000
O     4.396000000    -0.247000000    -3.279000000
H     4.342000000    -1.202000000    -3.245000000
H     3.498000000     0.039000000    -3.447000000
O     1.930000000    -4.064000000     0.816000000
H     2.626000000    -3.636000000     0.317000000
H     1.170000000    -4.043000000     0.234000000
O    -5.616000000    -3.013000000     5.347000000
H    -5.852000000    -2.363000000     4.684000000
H    -6.211000000    -2.837000000     6.076000000
O    -3.193000000    -1.679000000     3.830000000
H    -2.355000000    -1.445000000     4.230000000
H    -3.154000000    -1.299000000     2.952000000
O    -0.986000000     3.819000000    -3.133000000
H    -1.253000000     2.964000000    -3.470000000
H    -1.268000000     4.441000000    -3.804000000
O     0.701000000    -0.565000000    -6.914000000
H     0.501000000    -0.556000000    -5.978000000
H     0.719000000     0.359000000    -7.164000000
O     6.586000000     3.540000000    -2.802000000
H     5.840000000     3.823000000    -2.272000000
H     6.457000000     2.598000000    -2.912000000
O     3.947000000     4.729000000    -1.530000000
H     3.105000000     4.667000000    -1.980000000
H     3.941000000     4.001000000    -0.909000000
O    -6.590000000     3.041000000     0.588000000
H    -6.840000000     3.887000000     0.216000000
H    -6.255000000     2.542000000    -0.157000000
O     0.801000000     4.517000000    -0.174000000
H    -0.095000000     4.836000000    -0.275000000
H     0.973000000     4.025000000    -0.977000000
O     3.751000000    -2.588000000    -0.515000000
H     3.620000000    -2.733000000    -1.452000000
H     4.323000000    -1.822000000    -0.468000000
O    -2.676000000    -4.576000000     4.509000000
H    -2.057000000    -4.554000000     5.239000000
H    -3.419000000    -4.052000000     4.808000000
O    -5.634000000     1.637000000    -1.635000000
H    -4.934000000     1.189000000    -1.159000000
H    -6.082000000     0.940000000    -2.114000000
O    -1.906000000     4.754000000    -0.470000000
H    -2.844000000     4.829000000    -0.297000000
H    -1.851000000     4.224000000    -1.266000000
O    -8.755000000    -0.866000000     0.682000000
H    -8.842000000    -0.195000000     1.359000000
H    -7.829000000    -0.844000000     0.440000000
O     0.894000000    -3.034000000     3.696000000
H     0.238000000    -2.352000000     3.846000000
H     0.907000000    -3.148000000     2.746000000
O    -3.141000000    -3.114000000     0.511000000
H    -3.840000000    -2.967000000    -0.127000000
H    -3.185000000    -2.355000000     1.093000000
O     3.876000000     2.417000000     0.096000000
H     4.028000000     1.473000000     0.058000000
H     4.747000000     2.795000000     0.221000000
O    -2.318000000    -5.204000000     1.964000000
H    -2.384000000    -4.995000000     2.896000000
H    -2.939000000    -4.610000000     1.541000000
O    -4.857000000    -3.021000000    -1.699000000
H    -4.268000000    -2.713000000    -2.387000000
H    -5.170000000    -3.869000000    -2.013000000
O     3.313000000    -4.649000000     3.221000000
H     2.822000000    -4.136000000     2.579000000
H     4.138000000    -4.174000000     3.325000000
O     0.135000000    -0.849000000    -4.046000000
H    -0.616000000    -0.279000000    -4.210000000
H     0.546000000    -0.485000000    -3.263000000
O    -3.105000000    -2.506000000    -3.929000000
H    -3.657000000    -2.425000000    -4.707000000
H    -3.019000000    -1.610000000    -3.603000000
O     7.151000000     2.032000000     2.365000000
H     7.885000000     1.841000000     2.949000000
H     6.467000000     1.416000000     2.630000000
O     5.235000000     0.152000000     3.776000000
H     5.941000000    -0.246000000     4.286000000
H     4.600000000    -0.554000000     3.654000000
O    -5.883000000    -1.321000000     2.994000000
H    -4.962000000    -1.476000000     3.204000000
H    -5.893000000    -1.186000000     2.046000000
O     1.042000000    -4.755000000    -2.801000000
H     0.457000000    -4.612000000    -2.057000000
H     0.734000000    -4.141000000    -3.469000000
O     6.858000000     0.529000000    -2.797000000
H     5.989000000     0.208000000    -3.037000000
H     7.050000000     0.101000000    -1.963000000
O    -1.479000000     1.323000000    -4.426000000
H    -1.973000000     1.318000000    -5.245000000
H    -2.049000000     0.878000000    -3.799000000
O    -3.358000000     0.042000000    -2.949000000
H    -3.257000000     0.234000000    -2.017000000
H    -4.274000000     0.244000000    -3.138000000
O    -3.715000000    -1.376000000     6.859000000
H    -2.895000000    -0.883000000     6.835000000
H    -3.998000000    -1.415000000     5.945000000
O     1.705000000     4.173000000    -2.992000000
H     0.767000000     4.116000000    -3.175000000
H     2.076000000     3.390000000    -3.397000000
O    -0.621000000    -0.776000000     4.670000000
H    -0.448000000     0.144000000     4.468000000
H    -0.066000000    -0.964000000     5.426000000
O     3.952000000    -3.002000000    -3.232000000
H     4.897000000    -3.152000000    -3.204000000
H     3.712000000    -3.155000000    -4.146000000
O    -0.202000000     1.986000000     3.852000000
H    -0.945000000     2.400000000     3.412000000
H     0.560000000     2.250000000     3.337000000
O    -2.627000000     3.173000000     4.998000000
H    -2.686000000     2.458000000     5.632000000
H    -3.008000000     2.815000000     4.197000000
O     5.329000000     0.255000000     0.803000000
H     6.228000000    -0.007000000     0.604000000
H     5.208000000     0.017000000     1.722000000
O     6.359000000     3.637000000     0.518000000
H     6.919000000     3.038000000     1.011000000
H     6.888000000     4.428000000     0.412000000
O    -1.418000000     3.138000000     1.756000000
H    -0.931000000     3.903000000     2.060000000
H    -1.608000000     3.324000000     0.837000000
O    -5.429000000     3.757000000    -3.386000000
H    -5.239000000     3.006000000    -2.824000000
H    -6.375000000     3.717000000    -3.528000000
O    -5.972000000    -1.289000000     0.205000000
H    -5.155000000    -0.791000000     0.230000000
H    -5.903000000    -1.823000000    -0.586000000
O    -4.244000000     1.711000000     2.954000000
H    -5.093000000     2.031000000     2.649000000
H    -4.142000000     0.860000000     2.527000000
O     3.046000000    -1.329000000     4.539000000
H     2.607000000    -1.463000000     5.378000000
H     2.386000000    -1.556000000     3.884000000
O     6.889000000    -1.855000000    -1.092000000
H     6.945000000    -2.418000000    -0.320000000
H     7.083000000    -2.436000000    -1.827000000
O     5.778000000     0.535000000    -5.993000000
H     5.168000000     0.850000000    -5.325000000
H     6.491000000     0.134000000    -5.496000000
O     2.294000000     2.834000000     2.194000000
H     2.994000000     2.604000000     1.584000000
H     1.642000000     3.280000000     1.653000000
