158
-3057.35066
C    -1.055000000     0.993000000    -0.229000000
H    -1.797000000     1.766000000    -0.409000000
C     0.206000000     1.087000000    -0.721000000
H     0.440000000     1.900000000    -1.404000000
C     1.159000000     0.094000000    -0.507000000
H     2.150000000     0.106000000    -1.025000000
C     0.775000000    -0.961000000     0.269000000
H     1.417000000    -1.830000000     0.386000000
C    -0.497000000    -1.045000000     0.876000000
H    -0.818000000    -1.964000000     1.359000000
C    -1.484000000    -0.089000000     0.595000000
C    -2.827000000    -0.177000000     1.326000000
O    -3.644000000     0.757000000     1.203000000
O    -3.065000000    -1.002000000     2.174000000
O     7.338000000    -1.891000000    -2.870000000
H     8.249000000    -2.147000000    -2.727000000
H     6.829000000    -2.524000000    -2.363000000
O     0.740000000     2.842000000    -4.813000000
H     0.629000000     2.041000000    -4.302000000
H    -0.092000000     2.949000000    -5.274000000
O     4.258000000    -1.578000000    -0.063000000
H     5.078000000    -2.038000000    -0.246000000
H     4.525000000    -0.677000000     0.123000000
O     0.874000000    -4.245000000     4.014000000
H     0.486000000    -4.113000000     3.149000000
H     0.140000000    -4.513000000     4.567000000
O    -1.427000000    -3.482000000     5.472000000
H    -1.872000000    -3.209000000     6.274000000
H    -1.306000000    -2.672000000     4.977000000
O    -1.605000000    -1.043000000     4.383000000
H    -1.897000000    -0.279000000     4.880000000
H    -2.153000000    -1.042000000     3.599000000
O     0.112000000    -4.337000000     1.238000000
H     0.492000000    -3.735000000     0.599000000
H    -0.670000000    -4.682000000     0.807000000
O     3.891000000    -5.598000000     1.161000000
H     4.473000000    -5.773000000     0.421000000
H     3.059000000    -6.000000000     0.911000000
O    -2.258000000     0.825000000    -3.531000000
H    -2.996000000     1.302000000    -3.910000000
H    -2.537000000     0.623000000    -2.638000000
O     1.077000000    -3.898000000    -1.659000000
H     1.058000000    -4.721000000    -2.148000000
H     0.337000000    -3.398000000    -2.005000000
O    -6.664000000     2.299000000     5.104000000
H    -6.787000000     1.354000000     5.191000000
H    -6.236000000     2.408000000     4.255000000
O     6.130000000     0.686000000    -2.345000000
H     5.452000000     0.938000000    -2.972000000
H     6.402000000    -0.188000000    -2.625000000
O    -1.654000000    -5.421000000    -0.674000000
H    -2.066000000    -6.278000000    -0.563000000
H    -0.852000000    -5.603000000    -1.164000000
O     4.742000000     1.063000000     0.000000000
H     5.328000000     1.019000000    -0.756000000
H     4.273000000     1.891000000    -0.109000000
O     3.841000000    -0.709000000    -7.215000000
H     4.467000000     0.014000000    -7.258000000
H     3.513000000    -0.688000000    -6.316000000
O    -0.634000000     5.704000000    -4.061000000
H     0.137000000     6.170000000    -4.383000000
H    -0.625000000     4.871000000    -4.533000000
O    -5.834000000     1.880000000    -1.685000000
H    -5.552000000     2.541000000    -1.053000000
H    -6.610000000     1.485000000    -1.288000000
O    -6.174000000     0.304000000     0.583000000
H    -6.660000000     0.415000000     1.400000000
H    -5.275000000     0.548000000     0.805000000
O     3.135000000    -0.434000000    -4.496000000
H     2.240000000    -0.100000000    -4.551000000
H     3.139000000    -0.980000000    -3.710000000
O    -5.134000000    -1.643000000     3.981000000
H    -4.885000000    -1.330000000     4.851000000
H    -4.386000000    -1.424000000     3.425000000
O    -0.025000000     2.161000000     2.994000000
H     0.194000000     1.349000000     2.536000000
H    -0.712000000     2.558000000     2.460000000
O    -5.805000000    -4.886000000     1.824000000
H    -5.364000000    -4.458000000     2.557000000
H    -5.689000000    -5.822000000     1.988000000
O    -7.944000000    -1.349000000     2.599000000
H    -8.525000000    -2.108000000     2.546000000
H    -7.063000000    -1.722000000     2.602000000
O    -2.603000000    -6.260000000     2.455000000
H    -2.241000000    -6.433000000     1.586000000
H    -2.725000000    -5.311000000     2.479000000
O    -4.711000000     2.205000000    -4.232000000
H    -5.021000000     2.372000000    -3.342000000
H    -5.452000000     2.441000000    -4.791000000
O    -5.870000000    -3.197000000    -0.646000000
H    -5.603000000    -3.426000000     0.244000000
H    -5.401000000    -3.817000000    -1.204000000
O    -2.515000000     4.031000000     2.371000000
H    -2.549000000     4.383000000     3.260000000
H    -2.482000000     4.804000000     1.808000000
O    -1.503000000    -2.525000000    -3.154000000
H    -1.358000000    -2.834000000    -4.048000000
H    -1.607000000    -1.577000000    -3.243000000
O     0.452000000     0.277000000    -4.079000000
H    -0.422000000     0.473000000    -3.743000000
H     0.303000000    -0.359000000    -4.779000000
O    -2.841000000    -3.603000000     2.687000000
H    -2.731000000    -3.506000000     3.633000000
H    -2.974000000    -2.711000000     2.369000000
O     4.848000000    -2.854000000     3.891000000
H     4.253000000    -2.966000000     3.149000000
H     4.723000000    -1.945000000     4.163000000
O     0.062000000    -1.475000000    -6.172000000
H     0.103000000    -1.716000000    -7.097000000
H     0.843000000    -1.872000000    -5.786000000
O     1.507000000    -6.398000000     0.322000000
H     1.178000000    -5.756000000     0.952000000
H     1.143000000    -6.117000000    -0.518000000
O     2.836000000     3.072000000     2.743000000
H     2.170000000     3.684000000     3.058000000
H     2.676000000     3.009000000     1.801000000
O     6.569000000    -2.765000000     2.006000000
H     6.235000000    -3.068000000     2.851000000
H     6.371000000    -1.829000000     1.993000000
O    -4.429000000    -0.740000000    -1.753000000
H    -4.701000000     0.141000000    -1.497000000
H    -4.813000000    -1.312000000    -1.088000000
O    -4.237000000     3.176000000     0.404000000
H    -4.165000000     2.244000000     0.610000000
H    -3.379000000     3.537000000     0.627000000
O     1.983000000     4.335000000    -2.825000000
H     1.303000000     4.980000000    -2.630000000
H     1.610000000     3.798000000    -3.524000000
O     0.157000000    -0.349000000     6.372000000
H    -0.148000000    -0.867000000     5.628000000
H     0.762000000    -0.929000000     6.836000000
O     4.758000000    -3.304000000    -4.579000000
H     4.384000000    -2.809000000    -3.850000000
H     5.658000000    -2.986000000    -4.648000000
O     3.404000000    -2.455000000    -2.423000000
H     2.496000000    -2.650000000    -2.190000000
H     3.826000000    -2.251000000    -1.589000000
O     2.643000000    -0.091000000     2.596000000
H     2.058000000    -0.216000000     1.849000000
H     2.831000000     0.848000000     2.598000000
O     2.020000000    -1.599000000     4.738000000
H     2.254000000    -1.009000000     4.021000000
H     2.072000000    -2.475000000     4.355000000
O     3.344000000     3.449000000    -0.069000000
H     3.196000000     3.529000000    -1.011000000
H     3.448000000     4.350000000     0.236000000
O     6.093000000    -3.465000000    -0.987000000
H     6.228000000    -4.302000000    -1.432000000
H     6.362000000    -3.629000000    -0.083000000
O    -4.607000000     2.098000000     3.258000000
H    -4.041000000     2.813000000     2.968000000
H    -4.311000000     1.339000000     2.755000000
O    -3.102000000     1.002000000     5.389000000
H    -3.809000000     1.356000000     4.849000000
H    -3.532000000     0.362000000     5.957000000
O     2.907000000    -2.937000000     1.870000000
H     3.313000000    -2.401000000     1.189000000
H     3.088000000    -3.839000000     1.606000000
