158
-3023.14576
C    -0.425000000     1.473000000     0.103000000
H    -0.731000000     2.516000000     0.088000000
C     0.871000000     1.054000000    -0.358000000
H     1.592000000     1.808000000    -0.666000000
C     1.168000000    -0.328000000    -0.239000000
H     2.155000000    -0.670000000    -0.556000000
C     0.189000000    -1.217000000     0.074000000
H     0.345000000    -2.291000000     0.144000000
C    -1.078000000    -0.806000000     0.467000000
H    -1.841000000    -1.513000000     0.782000000
C    -1.379000000     0.542000000     0.493000000
C    -2.791000000     0.928000000     0.859000000
O    -3.276000000     2.008000000     0.563000000
O    -3.455000000     0.133000000     1.429000000
O     1.913000000     2.598000000    -3.110000000
H     1.534000000     3.221000000    -2.491000000
H     2.327000000     3.145000000    -3.778000000
O     5.590000000     0.289000000    -3.808000000
H     5.268000000    -0.485000000    -3.347000000
H     4.797000000     0.764000000    -4.059000000
O    -1.545000000    -5.366000000     2.602000000
H    -0.869000000    -5.420000000     1.927000000
H    -2.241000000    -4.843000000     2.204000000
O    -3.339000000    -3.289000000     4.603000000
H    -3.994000000    -3.351000000     5.298000000
H    -2.824000000    -2.514000000     4.826000000
O    -2.471000000    -0.479000000     4.619000000
H    -1.529000000    -0.351000000     4.729000000
H    -2.670000000    -0.077000000     3.774000000
O    -1.029000000    -5.715000000    -1.945000000
H    -1.698000000    -6.378000000    -1.778000000
H    -1.420000000    -5.140000000    -2.602000000
O     3.391000000    -4.987000000    -2.072000000
H     2.786000000    -5.709000000    -2.238000000
H     4.252000000    -5.402000000    -2.019000000
O    -1.018000000     3.408000000    -2.836000000
H    -1.706000000     2.793000000    -2.581000000
H    -0.746000000     3.117000000    -3.706000000
O     0.976000000    -1.611000000    -4.141000000
H     0.771000000    -1.812000000    -5.055000000
H     0.124000000    -1.454000000    -3.734000000
O     3.098000000     6.268000000     0.755000000
H     3.383000000     5.355000000     0.786000000
H     2.243000000     6.267000000     1.187000000
O     4.245000000    -1.360000000    -6.281000000
H     5.071000000    -0.971000000    -5.993000000
H     3.570000000    -0.809000000    -5.884000000
O     3.174000000    -4.381000000     1.025000000
H     2.269000000    -4.370000000     0.713000000
H     3.578000000    -3.617000000     0.614000000
O    -6.570000000    -0.057000000    -0.927000000
H    -5.843000000    -0.653000000    -0.748000000
H    -6.508000000     0.608000000    -0.241000000
O    -4.272000000    -0.434000000     6.583000000
H    -4.415000000     0.456000000     6.904000000
H    -3.627000000    -0.336000000     5.883000000
O     2.868000000     0.497000000    -4.574000000
H     2.520000000     1.190000000    -4.012000000
H     2.499000000    -0.310000000    -4.215000000
O    -6.113000000     0.890000000     1.713000000
H    -6.124000000     0.290000000     2.459000000
H    -5.193000000     0.931000000     1.452000000
O    -0.716000000     4.964000000     1.349000000
H    -0.437000000     5.823000000     1.666000000
H    -1.635000000     5.084000000     1.111000000
O    -3.898000000    -4.077000000     2.124000000
H    -4.475000000    -3.340000000     1.923000000
H    -3.635000000    -3.934000000     3.033000000
O    -2.862000000     6.088000000    -2.519000000
H    -2.072000000     5.629000000    -2.233000000
H    -3.572000000     5.669000000    -2.033000000
O    -3.267000000     6.015000000     0.948000000
H    -3.633000000     6.070000000     1.831000000
H    -3.613000000     6.786000000     0.498000000
O     4.059000000    -5.966000000     3.087000000
H     4.070000000    -5.267000000     2.433000000
H     3.174000000    -6.326000000     3.038000000
O    -1.360000000    -0.353000000    -3.150000000
H    -2.016000000     0.291000000    -2.883000000
H    -1.143000000    -0.821000000    -2.343000000
O    -0.722000000     2.258000000    -5.370000000
H     0.172000000     1.916000000    -5.358000000
H    -1.275000000     1.479000000    -5.427000000
O    -5.039000000    -1.847000000     0.760000000
H    -4.543000000    -1.116000000     1.128000000
H    -4.461000000    -2.216000000     0.092000000
O     4.978000000    -3.074000000     3.010000000
H     5.418000000    -3.564000000     2.314000000
H     4.910000000    -2.183000000     2.669000000
O     1.521000000     7.202000000    -2.071000000
H     1.605000000     6.260000000    -1.927000000
H     2.421000000     7.509000000    -2.184000000
O     0.532000000    -4.973000000     0.376000000
H     0.060000000    -5.046000000    -0.454000000
H     0.878000000    -5.852000000     0.532000000
O     3.785000000     3.426000000    -0.202000000
H     3.012000000     2.957000000    -0.515000000
H     4.168000000     3.810000000    -0.990000000
O    -3.177000000     1.694000000    -2.593000000
H    -3.573000000     2.139000000    -3.343000000
H    -3.879000000     1.648000000    -1.944000000
O    -4.326000000     4.235000000    -0.674000000
H    -3.958000000     3.387000000    -0.425000000
H    -3.933000000     4.856000000    -0.061000000
O     6.781000000    -2.413000000    -1.848000000
H     6.903000000    -2.560000000    -0.910000000
H     7.199000000    -3.167000000    -2.265000000
O     0.637000000     4.629000000    -1.288000000
H     0.240000000     4.994000000    -0.497000000
H    -0.087000000     4.197000000    -1.742000000
O     0.033000000    -0.182000000     5.128000000
H     0.385000000     0.190000000     4.320000000
H     0.797000000    -0.536000000     5.583000000
O     3.202000000    -2.213000000    -2.371000000
H     2.344000000    -2.089000000    -2.777000000
H     3.278000000    -3.160000000    -2.256000000
O     1.307000000    -0.009000000     2.695000000
H     1.753000000     0.837000000     2.657000000
H     0.891000000    -0.099000000     1.838000000
O     2.002000000    -2.523000000     3.516000000
H     1.576000000    -1.713000000     3.236000000
H     2.549000000    -2.775000000     2.773000000
O    -4.126000000    -3.271000000    -1.375000000
H    -3.500000000    -3.952000000    -1.130000000
H    -4.009000000    -3.166000000    -2.319000000
O     4.540000000     4.546000000    -2.568000000
H     5.177000000     5.257000000    -2.642000000
H     4.053000000     4.574000000    -3.391000000
O     5.305000000    -3.881000000    -4.304000000
H     5.275000000    -3.388000000    -3.484000000
H     4.446000000    -3.736000000    -4.701000000
O    -0.744000000     2.974000000     3.760000000
H    -0.442000000     3.253000000     2.896000000
H    -1.698000000     3.044000000     3.714000000
O    -6.726000000     5.414000000    -1.440000000
H    -5.874000000     5.005000000    -1.291000000
H    -6.957000000     5.801000000    -0.595000000
O    -6.469000000    -0.959000000     4.460000000
H    -6.894000000    -0.454000000     5.154000000
H    -5.621000000    -1.207000000     4.829000000
O    -6.027000000     3.667000000     1.583000000
H    -5.744000000     3.908000000     0.701000000
H    -6.069000000     2.711000000     1.569000000
O    -3.263000000     3.401000000     2.895000000
H    -3.907000000     4.106000000     2.834000000
H    -3.381000000     2.897000000     2.090000000
O     4.282000000    -0.505000000     3.877000000
H     3.602000000    -1.103000000     4.187000000
H     3.836000000     0.055000000     3.241000000
O     4.370000000    -1.873000000     0.230000000
H     5.326000000    -1.902000000     0.282000000
H     4.183000000    -1.826000000    -0.708000000
O     7.681000000     0.326000000    -2.074000000
H     7.051000000     0.364000000    -2.793000000
H     7.549000000    -0.539000000    -1.685000000
O     3.096000000     2.077000000     2.610000000
H     3.590000000     2.733000000     3.101000000
H     3.281000000     2.276000000     1.692000000
