158
-3024.36753
C    -1.075000000    -0.344000000    -0.901000000
H    -1.769000000    -0.388000000    -1.736000000
C     0.261000000    -0.303000000    -1.192000000
H     0.613000000    -0.416000000    -2.214000000
C     1.186000000    -0.026000000    -0.272000000
H     2.177000000    -0.101000000    -0.447000000
C     0.792000000     0.196000000     1.008000000
H     1.561000000     0.336000000     1.763000000
C    -0.577000000     0.146000000     1.351000000
H    -0.936000000     0.350000000     2.356000000
C    -1.566000000    -0.190000000     0.396000000
C    -3.033000000    -0.167000000     0.789000000
O    -3.819000000     0.208000000    -0.010000000
O    -3.251000000    -0.265000000     2.013000000
O     0.649000000    -3.919000000    -2.153000000
H     1.015000000    -4.458000000    -1.451000000
H    -0.085000000    -4.432000000    -2.490000000
O     0.290000000    -3.987000000     1.537000000
H     1.230000000    -3.813000000     1.599000000
H    -0.102000000    -3.129000000     1.375000000
O     4.274000000     5.093000000    -2.065000000
H     3.525000000     4.533000000    -2.271000000
H     4.609000000     4.749000000    -1.237000000
O    -6.682000000    -0.112000000     5.652000000
H    -6.065000000     0.276000000     5.030000000
H    -6.444000000     0.271000000     6.496000000
O     3.306000000    -2.748000000    -2.942000000
H     2.354000000    -2.724000000    -2.845000000
H     3.504000000    -2.030000000    -3.543000000
O    -3.095000000    -3.831000000    -2.272000000
H    -3.277000000    -3.899000000    -1.334000000
H    -3.080000000    -2.889000000    -2.445000000
O     5.249000000     2.500000000    -0.692000000
H     5.179000000     2.537000000    -1.646000000
H     4.719000000     1.743000000    -0.442000000
O    -6.403000000     1.208000000     0.081000000
H    -6.371000000     1.632000000     0.939000000
H    -5.627000000     0.649000000     0.061000000
O     5.155000000     1.735000000    -3.495000000
H     4.509000000     1.820000000    -4.197000000
H     5.296000000     0.792000000    -3.413000000
O     6.348000000    -0.853000000    -3.166000000
H     6.946000000    -1.587000000    -3.025000000
H     5.793000000    -1.133000000    -3.894000000
O    -2.018000000     2.842000000    -5.246000000
H    -2.832000000     2.901000000    -5.745000000
H    -2.159000000     2.111000000    -4.644000000
O    -1.366000000    -4.168000000     4.272000000
H    -2.017000000    -4.081000000     3.576000000
H    -0.881000000    -3.343000000     4.252000000
O    -6.404000000     2.566000000     2.436000000
H    -6.199000000     3.471000000     2.674000000
H    -7.280000000     2.418000000     2.791000000
O     1.338000000     3.101000000    -0.098000000
H     1.364000000     3.490000000    -0.973000000
H     1.128000000     2.180000000    -0.253000000
O    -6.477000000    -2.543000000    -2.110000000
H    -6.884000000    -2.086000000    -1.374000000
H    -5.566000000    -2.248000000    -2.101000000
O     3.077000000    -3.563000000     1.688000000
H     3.612000000    -3.377000000     0.916000000
H     2.812000000    -2.700000000     2.007000000
O     2.943000000     3.428000000     4.627000000
H     2.215000000     3.917000000     5.009000000
H     2.717000000     3.347000000     3.700000000
O    -2.036000000     4.025000000     1.046000000
H    -1.500000000     3.332000000     1.432000000
H    -2.283000000     4.577000000     1.788000000
O    -3.845000000    -2.711000000     2.779000000
H    -3.715000000    -1.792000000     2.545000000
H    -4.337000000    -2.681000000     3.600000000
O     2.466000000     3.949000000     2.097000000
H     2.082000000     3.648000000     1.273000000
H     3.298000000     4.348000000     1.842000000
O    -3.570000000     5.086000000    -2.787000000
H    -4.372000000     5.600000000    -2.696000000
H    -3.740000000     4.287000000    -2.286000000
O    -3.875000000    -4.525000000     0.750000000
H    -3.838000000    -5.315000000     1.290000000
H    -4.016000000    -3.814000000     1.375000000
O    -4.765000000    -2.388000000    -5.177000000
H    -4.262000000    -2.093000000    -4.418000000
H    -5.218000000    -3.174000000    -4.874000000
O     7.846000000    -2.004000000     1.019000000
H     7.458000000    -1.132000000     0.947000000
H     8.747000000    -1.891000000     0.717000000
O    -4.066000000     3.085000000    -0.839000000
H    -4.279000000     2.194000000    -0.561000000
H    -3.629000000     3.474000000    -0.082000000
O    -0.836000000    -2.340000000    -4.035000000
H    -0.376000000    -2.772000000    -4.754000000
H    -0.407000000    -2.667000000    -3.244000000
O    -2.597000000    -1.396000000     6.477000000
H    -3.388000000    -1.552000000     5.960000000
H    -2.228000000    -2.268000000     6.618000000
O    -2.298000000    -0.013000000    -4.469000000
H    -2.570000000     0.014000000    -5.387000000
H    -1.843000000    -0.850000000    -4.378000000
O     6.914000000     1.408000000     1.514000000
H     6.661000000     2.146000000     0.959000000
H     7.871000000     1.406000000     1.488000000
O    -5.021000000    -2.233000000     5.191000000
H    -5.543000000    -1.433000000     5.250000000
H    -5.663000000    -2.941000000     5.220000000
O     3.622000000    -5.539000000    -2.712000000
H     3.533000000    -4.589000000    -2.788000000
H     3.233000000    -5.749000000    -1.863000000
O     0.634000000     2.047000000    -6.039000000
H    -0.052000000     2.411000000    -5.479000000
H     0.288000000     1.201000000    -6.323000000
O    -6.826000000     0.697000000    -3.409000000
H    -6.782000000     0.197000000    -2.594000000
H    -6.000000000     1.180000000    -3.439000000
O    -3.328000000     1.939000000     5.398000000
H    -3.602000000     1.625000000     6.260000000
H    -3.793000000     1.375000000     4.779000000
O     1.419000000     4.524000000    -3.023000000
H     0.853000000     4.307000000    -3.763000000
H     0.856000000     5.018000000    -2.427000000
O     0.623000000     1.236000000     4.901000000
H     0.555000000     0.689000000     5.684000000
H     1.347000000     1.834000000     5.089000000
O     4.535000000    -1.229000000    -5.024000000
H     4.070000000    -0.502000000    -5.438000000
H     4.607000000    -1.891000000    -5.712000000
O     3.758000000     0.695000000     4.885000000
H     3.839000000     1.633000000     5.054000000
H     3.709000000     0.627000000     3.931000000
O    -1.299000000     2.677000000     3.227000000
H    -1.930000000     2.458000000     3.913000000
H    -0.457000000     2.383000000     3.574000000
O     4.525000000    -2.237000000    -0.215000000
H     4.103000000    -2.318000000    -1.070000000
H     5.462000000    -2.231000000    -0.410000000
O    -7.643000000    -1.259000000     0.205000000
H    -7.101000000    -0.498000000     0.413000000
H    -8.423000000    -1.154000000     0.751000000
O    -3.955000000    -1.036000000    -2.502000000
H    -3.840000000    -0.754000000    -1.594000000
H    -3.523000000    -0.357000000    -3.019000000
O    -6.442000000     4.915000000     0.626000000
H    -5.884000000     4.145000000     0.524000000
H    -7.334000000     4.570000000     0.600000000
O    -4.989000000     0.673000000     3.667000000
H    -5.340000000     1.357000000     3.096000000
H    -4.312000000     0.247000000     3.141000000
O    -0.096000000    -1.774000000     4.121000000
H    -0.971000000    -1.531000000     3.820000000
H     0.283000000    -0.957000000     4.444000000
O     3.348000000     1.589000000    -5.702000000
H     3.547000000     2.189000000    -6.421000000
H     2.395000000     1.503000000    -5.719000000
O     8.078000000     0.884000000    -1.910000000
H     8.944000000     0.602000000    -2.205000000
H     7.472000000     0.272000000    -2.328000000
O     4.372000000     0.027000000     2.193000000
H     4.464000000    -0.707000000     1.585000000
H     5.201000000     0.500000000     2.124000000
