158
-3023.26584
C    -0.905000000    -0.664000000    -0.952000000
H    -1.403000000    -1.029000000    -1.846000000
C     0.427000000    -0.278000000    -1.186000000
H     0.966000000    -0.489000000    -2.107000000
C     1.113000000     0.278000000    -0.143000000
H     2.162000000     0.398000000    -0.154000000
C     0.520000000     0.661000000     1.042000000
H     1.103000000     1.235000000     1.758000000
C    -0.804000000     0.329000000     1.257000000
H    -1.301000000     0.638000000     2.173000000
C    -1.545000000    -0.426000000     0.283000000
C    -2.969000000    -0.859000000     0.546000000
O    -3.642000000    -1.384000000    -0.319000000
O    -3.390000000    -0.916000000     1.679000000
O     1.622000000    -2.413000000     1.411000000
H     0.729000000    -2.758000000     1.382000000
H     1.581000000    -1.600000000     0.908000000
O     2.561000000     5.321000000    -2.869000000
H     1.698000000     5.637000000    -2.602000000
H     3.078000000     5.326000000    -2.063000000
O     0.005000000     5.838000000    -1.363000000
H    -0.100000000     4.886000000    -1.359000000
H    -0.863000000     6.174000000    -1.585000000
O     2.399000000    -0.859000000    -5.259000000
H     3.271000000    -0.493000000    -5.406000000
H     1.799000000    -0.157000000    -5.509000000
O    -7.082000000    -0.033000000     3.580000000
H    -6.425000000     0.613000000     3.839000000
H    -7.157000000    -0.614000000     4.337000000
O     2.167000000    -4.958000000    -0.437000000
H     2.208000000    -4.220000000    -1.045000000
H     2.545000000    -4.621000000     0.375000000
O    -1.016000000    -2.739000000     2.521000000
H    -0.837000000    -2.193000000     3.287000000
H    -1.966000000    -2.693000000     2.412000000
O    -5.219000000     1.845000000     4.243000000
H    -5.163000000     2.412000000     3.474000000
H    -5.094000000     2.436000000     4.986000000
O     7.161000000     4.541000000    -1.629000000
H     7.478000000     3.680000000    -1.354000000
H     6.209000000     4.479000000    -1.558000000
O     4.470000000     3.378000000    -1.626000000
H     3.658000000     3.085000000    -2.038000000
H     4.638000000     2.731000000    -0.941000000
O    -6.304000000    -0.005000000     0.921000000
H    -6.634000000     0.006000000     1.819000000
H    -5.403000000    -0.320000000     1.001000000
O     2.139000000     2.240000000    -2.094000000
H     1.903000000     1.318000000    -1.996000000
H     1.471000000     2.597000000    -2.679000000
O     3.730000000    -2.910000000    -1.386000000
H     4.522000000    -3.385000000    -1.640000000
H     4.047000000    -2.194000000    -0.835000000
O    -7.536000000     0.381000000    -1.542000000
H    -7.148000000     0.228000000    -0.680000000
H    -8.480000000     0.369000000    -1.385000000
O    -1.123000000    -4.847000000     4.444000000
H    -1.036000000    -4.063000000     3.901000000
H    -1.869000000    -4.661000000     5.015000000
O    -0.506000000    -4.933000000    -3.379000000
H     0.223000000    -4.403000000    -3.057000000
H    -1.164000000    -4.293000000    -3.652000000
O    -2.712000000     2.723000000    -2.428000000
H    -2.769000000     2.605000000    -3.376000000
H    -3.428000000     2.192000000    -2.078000000
O    -0.712000000     3.305000000    -0.694000000
H    -1.001000000     3.104000000    -1.585000000
H    -0.323000000     2.490000000    -0.379000000
O    -5.693000000    -5.551000000     0.617000000
H    -5.496000000    -5.767000000     1.529000000
H    -5.320000000    -4.678000000     0.492000000
O    -8.590000000    -2.259000000     0.279000000
H    -8.633000000    -1.329000000     0.503000000
H    -7.657000000    -2.433000000     0.157000000
O     3.237000000    -3.229000000     3.525000000
H     2.716000000    -2.842000000     2.821000000
H     3.739000000    -3.923000000     3.098000000
O     0.421000000     2.273000000     5.973000000
H    -0.141000000     2.261000000     6.747000000
H    -0.181000000     2.408000000     5.241000000
O    -3.220000000     4.039000000     4.047000000
H    -2.954000000     3.213000000     4.451000000
H    -2.456000000     4.313000000     3.538000000
O    -4.195000000    -3.400000000     1.683000000
H    -3.507000000    -3.674000000     1.076000000
H    -4.097000000    -2.449000000     1.742000000
O     4.832000000     1.374000000     0.255000000
H     4.658000000     0.536000000    -0.172000000
H     5.598000000     1.208000000     0.804000000
O    -0.178000000     4.120000000     3.734000000
H    -0.335000000     4.087000000     2.790000000
H     0.217000000     4.979000000     3.881000000
O    -2.745000000    -4.744000000    -0.181000000
H    -1.994000000    -5.282000000     0.070000000
H    -2.367000000    -3.895000000    -0.408000000
O    -5.667000000    -3.514000000    -3.639000000
H    -4.767000000    -3.362000000    -3.929000000
H    -5.698000000    -4.447000000    -3.431000000
O    -4.854000000     3.408000000     1.584000000
H    -4.273000000     3.124000000     0.878000000
H    -4.308000000     3.975000000     2.129000000
O     1.789000000    -3.141000000    -3.439000000
H     2.623000000    -3.004000000    -2.989000000
H     1.788000000    -2.493000000    -4.144000000
O    -2.673000000    -3.572000000    -4.491000000
H    -2.610000000    -3.883000000    -5.394000000
H    -2.793000000    -2.625000000    -4.572000000
O     5.207000000     1.954000000     4.486000000
H     4.489000000     2.050000000     3.860000000
H     5.253000000     1.013000000     4.654000000
O     6.315000000     0.400000000     2.079000000
H     7.151000000    -0.029000000     2.261000000
H     6.219000000     1.046000000     2.779000000
O    -5.606000000    -3.957000000     4.028000000
H    -5.373000000    -3.963000000     3.100000000
H    -4.832000000    -3.607000000     4.468000000
O     7.042000000     0.784000000    -3.197000000
H     6.880000000     0.190000000    -3.930000000
H     6.170000000     1.036000000    -2.895000000
O    -2.430000000    -1.049000000    -5.074000000
H    -1.623000000    -0.563000000    -5.241000000
H    -3.120000000    -0.508000000    -5.459000000
O    -4.574000000     0.785000000    -1.659000000
H    -4.171000000     0.028000000    -1.234000000
H    -5.503000000     0.562000000    -1.715000000
O    -3.354000000    -3.048000000     5.329000000
H    -3.447000000    -2.836000000     6.258000000
H    -3.444000000    -2.206000000     4.882000000
O     0.398000000     2.611000000    -4.102000000
H    -0.351000000     3.146000000    -4.360000000
H     0.708000000     2.222000000    -4.920000000
O    -0.362000000    -1.699000000     5.136000000
H     0.342000000    -1.055000000     5.061000000
H    -0.500000000    -1.795000000     6.078000000
O     1.747000000    -0.092000000     5.050000000
H     1.406000000     0.663000000     5.529000000
H     2.172000000     0.284000000     4.280000000
O    -2.194000000     1.708000000     5.297000000
H    -2.869000000     1.598000000     5.966000000
H    -2.041000000     0.824000000     4.963000000
O     5.458000000    -1.384000000    -0.021000000
H     6.216000000    -1.645000000    -0.543000000
H     5.776000000    -1.388000000     0.882000000
O    -2.045000000     4.356000000     1.485000000
H    -2.097000000     5.295000000     1.309000000
H    -1.523000000     4.005000000     0.764000000
O    -5.925000000    -2.537000000    -0.997000000
H    -5.105000000    -2.119000000    -0.735000000
H    -5.833000000    -2.676000000    -1.939000000
O    -3.598000000    -0.506000000     4.224000000
H    -4.214000000     0.222000000     4.308000000
H    -3.475000000    -0.608000000     3.280000000
O     5.134000000     0.234000000    -5.440000000
H     5.269000000     0.995000000    -6.005000000
H     5.741000000    -0.425000000    -5.777000000
O     3.551000000     2.349000000     2.660000000
H     3.896000000     2.248000000     1.773000000
H     3.268000000     3.262000000     2.705000000
