158
-3044.30579
C    -0.247000000    -0.175000000    -1.407000000
H    -0.528000000    -0.422000000    -2.428000000
C     0.465000000    -1.063000000    -0.610000000
H     0.818000000    -2.041000000    -0.925000000
C     0.710000000    -0.690000000     0.698000000
H     1.301000000    -1.392000000     1.399000000
C     0.132000000     0.441000000     1.200000000
H     0.305000000     0.656000000     2.251000000
C    -0.532000000     1.382000000     0.412000000
H    -0.924000000     2.279000000     0.886000000
C    -0.778000000     1.045000000    -0.955000000
C    -1.692000000     1.802000000    -1.786000000
O    -2.087000000     1.446000000    -2.877000000
O    -2.194000000     2.760000000    -1.406000000
O     1.616000000    -3.464000000    -3.362000000
H     1.840000000    -2.544000000    -3.499000000
H     0.659000000    -3.485000000    -3.396000000
O    -0.187000000     3.960000000     3.238000000
H    -1.124000000     4.105000000     3.105000000
H    -0.113000000     3.695000000     4.155000000
O    -1.698000000     4.034000000    -6.491000000
H    -2.009000000     4.475000000    -5.700000000
H    -1.191000000     3.289000000    -6.166000000
O     0.420000000    -5.496000000    -1.118000000
H     0.785000000    -5.001000000    -1.851000000
H     0.745000000    -6.387000000    -1.245000000
O    -2.718000000     0.253000000     2.298000000
H    -2.953000000     0.917000000     1.651000000
H    -2.410000000     0.753000000     3.054000000
O    -1.452000000    -3.323000000    -3.352000000
H    -1.736000000    -4.082000000    -2.842000000
H    -1.962000000    -2.593000000    -3.000000000
O    -2.569000000     5.457000000    -4.388000000
H    -2.440000000     5.741000000    -3.483000000
H    -2.942000000     6.220000000    -4.828000000
O    -5.264000000    -1.498000000    -4.097000000
H    -5.175000000    -2.446000000    -3.995000000
H    -4.364000000    -1.178000000    -4.157000000
O    -4.090000000     3.096000000    -3.921000000
H    -3.388000000     2.626000000    -3.472000000
H    -3.795000000     4.006000000    -3.941000000
O    -0.293000000     2.400000000    -4.672000000
H    -1.089000000     2.050000000    -4.271000000
H     0.048000000     3.019000000    -4.027000000
O    -1.750000000    -3.601000000     2.261000000
H    -0.816000000    -3.516000000     2.069000000
H    -1.823000000    -3.388000000     3.191000000
O     2.388000000    -2.586000000     5.773000000
H     1.475000000    -2.323000000     5.888000000
H     2.511000000    -2.617000000     4.825000000
O    -5.367000000     5.216000000    -1.161000000
H    -6.131000000     5.781000000    -1.047000000
H    -5.681000000     4.341000000    -0.933000000
O    -5.159000000     2.339000000     3.192000000
H    -5.592000000     1.487000000     3.239000000
H    -4.602000000     2.282000000     2.415000000
O     1.773000000     3.609000000    -2.814000000
H     1.417000000     3.039000000    -2.131000000
H     1.887000000     4.456000000    -2.383000000
O     2.597000000     1.439000000    -0.766000000
H     3.306000000     0.871000000    -1.068000000
H     1.948000000     0.839000000    -0.399000000
O    -2.900000000     4.465000000     2.974000000
H    -3.555000000     4.118000000     3.580000000
H    -3.324000000     5.223000000     2.571000000
O    -2.986000000    -3.614000000    -5.637000000
H    -2.358000000    -3.414000000    -4.943000000
H    -3.777000000    -3.888000000    -5.173000000
O    -5.714000000    -0.595000000    -1.662000000
H    -5.489000000    -0.925000000    -2.531000000
H    -4.888000000    -0.611000000    -1.178000000
O     4.092000000    -0.687000000     1.052000000
H     3.727000000     0.197000000     1.102000000
H     4.591000000    -0.694000000     0.236000000
O     1.911000000     5.473000000     2.591000000
H     1.084000000     5.004000000     2.477000000
H     2.356000000     5.381000000     1.748000000
O     0.207000000     6.741000000    -0.206000000
H    -0.656000000     6.402000000     0.031000000
H     0.750000000     5.959000000    -0.313000000
O    -3.443000000    -0.749000000    -0.240000000
H    -2.552000000    -0.492000000    -0.477000000
H    -3.471000000    -0.662000000     0.713000000
O     2.037000000     4.700000000    -0.170000000
H     2.360000000     3.814000000    -0.010000000
H     2.814000000     5.196000000    -0.426000000
O    -3.266000000    -3.751000000    -0.959000000
H    -3.078000000    -4.098000000    -0.087000000
H    -3.471000000    -2.828000000    -0.811000000
O     1.455000000    -6.011000000     3.696000000
H     1.615000000    -6.536000000     2.912000000
H     1.294000000    -5.128000000     3.364000000
O    -2.936000000     6.196000000    -1.764000000
H    -2.396000000     5.987000000    -1.002000000
H    -3.742000000     5.697000000    -1.629000000
O    -4.805000000     6.021000000     1.488000000
H    -5.604000000     6.495000000     1.257000000
H    -4.677000000     5.402000000     0.769000000
O    -2.700000000    -1.433000000     4.960000000
H    -3.328000000    -0.934000000     5.481000000
H    -2.655000000    -0.964000000     4.126000000
O    -1.520000000    -0.798000000    -6.499000000
H    -2.297000000    -0.752000000    -7.057000000
H    -1.004000000    -0.030000000    -6.744000000
O     6.785000000    -0.508000000     2.808000000
H     5.843000000    -0.625000000     2.685000000
H     6.885000000    -0.334000000     3.744000000
O     3.397000000    -3.119000000     2.704000000
H     4.283000000    -3.470000000     2.790000000
H     3.519000000    -2.256000000     2.308000000
O     1.691000000     1.310000000    -6.142000000
H     1.313000000     1.146000000    -7.006000000
H     0.962000000     1.649000000    -5.623000000
O    -5.650000000     2.354000000    -1.459000000
H    -5.250000000     2.666000000    -2.271000000
H    -5.692000000     1.404000000    -1.562000000
O    -1.429000000    -5.942000000     0.713000000
H    -1.318000000    -5.087000000     1.130000000
H    -0.668000000    -6.029000000     0.139000000
O    -1.937000000     1.580000000     4.338000000
H    -1.010000000     1.495000000     4.562000000
H    -2.370000000     1.756000000     5.173000000
O     6.053000000    -0.716000000     5.757000000
H     5.340000000    -1.277000000     5.450000000
H     5.627000000    -0.082000000     6.333000000
O    -0.003000000    -1.550000000     5.935000000
H    -0.159000000    -1.408000000     6.868000000
H    -0.865000000    -1.766000000     5.578000000
O    -1.490000000    -4.857000000     4.852000000
H    -1.301000000    -5.658000000     4.363000000
H    -2.445000000    -4.824000000     4.900000000
O     1.586000000     0.660000000     5.112000000
H     1.316000000    -0.205000000     4.802000000
H     2.341000000     0.885000000     4.568000000
O     2.463000000    -1.117000000    -4.546000000
H     2.199000000    -0.208000000    -4.685000000
H     2.078000000    -1.594000000    -5.281000000
O     4.100000000     1.236000000     3.887000000
H     4.264000000     1.965000000     3.290000000
H     4.406000000     1.550000000     4.738000000
O    -1.863000000     4.959000000     0.353000000
H    -1.539000000     4.220000000    -0.163000000
H    -2.155000000     4.566000000     1.176000000
O    -5.338000000     1.767000000    -5.993000000
H    -6.166000000     1.412000000    -5.669000000
H    -4.872000000     2.046000000    -5.205000000
O    -2.816000000    -0.773000000    -3.929000000
H    -2.589000000     0.069000000    -3.534000000
H    -2.195000000    -0.875000000    -4.650000000
O    -3.691000000     2.507000000     0.688000000
H    -4.524000000     2.672000000     0.246000000
H    -3.026000000     2.725000000     0.035000000
O     1.003000000    -4.036000000     1.457000000
H     1.097000000    -4.679000000     0.754000000
H     1.900000000    -3.769000000     1.659000000
O     4.543000000    -0.488000000    -1.762000000
H     4.744000000    -1.336000000    -2.158000000
H     4.831000000     0.154000000    -2.411000000
