158
-3011.92485
C     0.572000000    -0.512000000    -1.296000000
H     1.141000000    -0.850000000    -2.158000000
C     1.165000000    -0.682000000    -0.043000000
H     2.161000000    -1.117000000    -0.015000000
C     0.579000000    -0.164000000     1.092000000
H     0.987000000    -0.399000000     2.057000000
C    -0.680000000     0.332000000     0.978000000
H    -1.193000000     0.582000000     1.903000000
C    -1.300000000     0.534000000    -0.284000000
H    -2.331000000     0.878000000    -0.268000000
C    -0.663000000     0.107000000    -1.456000000
C    -1.290000000     0.393000000    -2.811000000
O    -1.217000000    -0.396000000    -3.762000000
O    -1.754000000     1.525000000    -3.039000000
O    -2.993000000     4.585000000     4.599000000
H    -3.299000000     3.679000000     4.646000000
H    -2.074000000     4.515000000     4.340000000
O    -5.036000000    -2.174000000    -2.759000000
H    -5.324000000    -3.042000000    -3.041000000
H    -4.403000000    -2.346000000    -2.061000000
O     2.387000000    -0.504000000     4.191000000
H     2.226000000    -1.308000000     4.684000000
H     2.516000000     0.167000000     4.862000000
O    -0.821000000    -2.885000000    -2.872000000
H    -1.535000000    -2.982000000    -2.241000000
H    -0.849000000    -1.962000000    -3.124000000
O    -3.906000000    -2.989000000    -5.568000000
H    -3.796000000    -2.592000000    -4.704000000
H    -3.246000000    -2.561000000    -6.114000000
O    -0.385000000     3.731000000    -1.154000000
H    -0.854000000     3.124000000    -1.727000000
H     0.504000000     3.378000000    -1.108000000
O     1.107000000    -3.466000000     6.445000000
H     0.900000000    -3.760000000     5.558000000
H     2.049000000    -3.616000000     6.533000000
O     6.707000000    -3.376000000     0.787000000
H     5.898000000    -3.438000000     0.279000000
H     6.620000000    -2.557000000     1.275000000
O    -1.094000000     0.893000000     5.568000000
H    -1.665000000     0.167000000     5.820000000
H    -1.351000000     1.611000000     6.146000000
O    -3.619000000     2.657000000    -1.723000000
H    -2.847000000     2.156000000    -1.985000000
H    -4.313000000     2.351000000    -2.306000000
O     0.001000000    -4.629000000    -4.932000000
H     0.722000000    -4.010000000    -5.041000000
H    -0.637000000    -4.162000000    -4.393000000
O    -3.046000000    -3.067000000    -1.077000000
H    -2.897000000    -4.013000000    -1.087000000
H    -2.486000000    -2.744000000    -0.372000000
O     0.680000000     1.264000000    -7.870000000
H     0.852000000     1.064000000    -6.950000000
H     0.192000000     2.087000000    -7.849000000
O     2.839000000     0.497000000    -3.556000000
H     3.366000000     0.813000000    -4.290000000
H     3.471000000     0.087000000    -2.966000000
O    -4.221000000    -0.088000000    -4.354000000
H    -4.583000000    -0.828000000    -3.867000000
H    -3.335000000     0.017000000    -4.008000000
O    -5.209000000     1.917000000     2.533000000
H    -5.987000000     1.649000000     2.046000000
H    -5.500000000     2.662000000     3.059000000
O     4.707000000    -0.122000000    -0.522000000
H     4.632000000    -0.789000000    -1.204000000
H     5.054000000    -0.593000000     0.236000000
O     1.034000000     2.307000000     4.720000000
H     1.353000000     1.669000000     4.082000000
H     0.303000000     1.868000000     5.153000000
O     2.099000000     2.659000000    -1.398000000
H     2.591000000     2.292000000    -0.664000000
H     2.193000000     2.011000000    -2.096000000
O    -3.763000000     3.905000000     0.580000000
H    -3.639000000     3.548000000    -0.299000000
H    -3.734000000     3.141000000     1.155000000
O    -2.169000000    -2.900000000     3.011000000
H    -1.303000000    -3.148000000     3.335000000
H    -2.053000000    -2.805000000     2.066000000
O     0.669000000     0.627000000    -5.285000000
H     1.530000000     0.565000000    -4.872000000
H     0.065000000     0.269000000    -4.634000000
O    -4.154000000     5.472000000    -3.679000000
H    -4.211000000     6.300000000    -3.203000000
H    -4.382000000     4.806000000    -3.030000000
O    -1.050000000     6.233000000    -2.432000000
H    -1.111000000     5.685000000    -3.215000000
H    -0.670000000     5.659000000    -1.767000000
O     2.049000000    -3.836000000    -2.011000000
H     1.118000000    -3.628000000    -2.091000000
H     2.077000000    -4.790000000    -1.938000000
O     0.370000000    -4.229000000     3.860000000
H     0.010000000    -5.028000000     4.245000000
H     1.242000000    -4.480000000     3.557000000
O    -1.566000000    -2.770000000     6.337000000
H    -0.821000000    -3.143000000     6.809000000
H    -1.256000000    -2.676000000     5.436000000
O    -0.296000000     4.802000000     3.971000000
H     0.375000000     4.176000000     4.244000000
H    -0.266000000     4.782000000     3.015000000
O     3.548000000     4.170000000     4.763000000
H     3.283000000     4.953000000     5.245000000
H     3.345000000     3.444000000     5.354000000
O     0.366000000     4.472000000     1.332000000
H    -0.246000000     4.235000000     0.634000000
H     1.132000000     3.920000000     1.176000000
O     2.041000000    -2.785000000    -5.504000000
H     1.893000000    -2.758000000    -6.450000000
H     2.570000000    -2.009000000    -5.322000000
O    -1.403000000    -0.597000000    -9.025000000
H    -0.650000000    -0.040000000    -8.823000000
H    -1.937000000    -0.574000000    -8.231000000
O     4.305000000    -1.934000000     2.087000000
H     5.087000000    -1.517000000     2.449000000
H     3.600000000    -1.676000000     2.680000000
O     1.719000000    -1.634000000     8.500000000
H     1.911000000    -1.315000000     7.618000000
H     0.957000000    -1.126000000     8.778000000
O    -1.965000000     1.613000000    -6.056000000
H    -1.174000000     1.161000000    -6.351000000
H    -1.803000000     1.802000000    -5.132000000
O     3.111000000     0.844000000     6.427000000
H     2.970000000     1.713000000     6.804000000
H     3.679000000     0.400000000     7.056000000
O    -1.716000000    -1.726000000    -6.114000000
H    -0.922000000    -2.074000000    -6.520000000
H    -1.401000000    -1.236000000    -5.354000000
O    -4.896000000    -0.778000000     2.451000000
H    -4.495000000    -1.118000000     3.252000000
H    -5.133000000     0.124000000     2.666000000
O    -6.894000000    -0.096000000     0.140000000
H    -7.606000000     0.016000000     0.770000000
H    -6.141000000    -0.350000000     0.673000000
O    -0.299000000     5.488000000    -5.823000000
H    -0.777000000     4.980000000    -5.167000000
H     0.390000000     5.930000000    -5.327000000
O     1.783000000    -4.285000000     1.443000000
H     2.248000000    -3.589000000     0.979000000
H     2.331000000    -5.061000000     1.324000000
O    -3.918000000     0.081000000    -7.330000000
H    -4.441000000    -0.467000000    -6.745000000
H    -3.398000000     0.630000000    -6.742000000
O     2.300000000     2.608000000     1.506000000
H     1.854000000     1.910000000     1.985000000
H     3.230000000     2.388000000     1.572000000
O    -5.019000000     2.544000000    -4.826000000
H    -4.713000000     1.646000000    -4.695000000
H    -5.280000000     2.837000000    -3.953000000
O    -1.721000000     4.009000000    -4.048000000
H    -2.626000000     4.310000000    -4.121000000
H    -1.789000000     3.135000000    -3.666000000
O     4.347000000    -2.156000000    -2.331000000
H     4.470000000    -2.601000000    -3.170000000
H     3.574000000    -2.572000000    -1.950000000
O    -0.656000000    -3.235000000     0.484000000
H    -0.021000000    -3.798000000     0.926000000
H    -0.183000000    -2.417000000     0.328000000
O     4.762000000     2.568000000    -0.490000000
H     5.507000000     2.796000000     0.066000000
H     4.665000000     1.622000000    -0.383000000
