158
-2995.83703
C    -0.066000000    -0.133000000    -1.452000000
H    -0.079000000    -0.084000000    -2.538000000
C     0.348000000     0.966000000    -0.721000000
H     0.656000000     1.907000000    -1.171000000
C     0.288000000     0.972000000     0.655000000
H     0.484000000     1.918000000     1.173000000
C    -0.067000000    -0.150000000     1.393000000
H    -0.025000000    -0.170000000     2.479000000
C    -0.471000000    -1.282000000     0.662000000
H    -0.860000000    -2.111000000     1.247000000
C    -0.513000000    -1.267000000    -0.749000000
C    -1.014000000    -2.488000000    -1.515000000
O    -1.383000000    -3.510000000    -0.947000000
O    -0.895000000    -2.560000000    -2.693000000
O    -3.881000000    -7.688000000     1.020000000
H    -4.196000000    -8.005000000     1.866000000
H    -3.641000000    -6.775000000     1.181000000
O    -1.769000000     1.386000000    -5.111000000
H    -1.929000000     2.218000000    -5.556000000
H    -2.095000000     1.523000000    -4.221000000
O    -2.370000000    -5.722000000    -4.674000000
H    -3.038000000    -5.547000000    -4.010000000
H    -1.575000000    -5.900000000    -4.172000000
O    -0.669000000    -6.739000000    -1.346000000
H    -0.741000000    -7.649000000    -1.056000000
H     0.065000000    -6.386000000    -0.844000000
O     2.146000000     4.858000000     2.549000000
H     2.092000000     4.637000000     1.619000000
H     1.266000000     5.159000000     2.776000000
O    -5.899000000    -3.320000000    -1.753000000
H    -6.794000000    -3.655000000    -1.800000000
H    -5.359000000    -4.098000000    -1.617000000
O    -5.695000000    -0.671000000    -0.833000000
H    -4.824000000    -0.294000000    -0.957000000
H    -5.558000000    -1.617000000    -0.893000000
O     0.052000000    -4.938000000    -3.231000000
H    -0.304000000    -4.113000000    -2.901000000
H    -0.305000000    -5.605000000    -2.644000000
O     3.583000000     2.567000000     2.209000000
H     3.977000000     2.761000000     1.358000000
H     3.359000000     3.425000000     2.570000000
O     1.823000000    -3.527000000     0.485000000
H     1.092000000    -3.217000000     1.020000000
H     2.603000000    -3.306000000     0.993000000
O     4.442000000    -0.733000000     4.748000000
H     4.531000000    -0.291000000     5.593000000
H     3.571000000    -1.129000000     4.776000000
O    -5.489000000    -6.933000000    -1.986000000
H    -4.893000000    -6.233000000    -1.718000000
H    -4.916000000    -7.608000000    -2.349000000
O    -0.716000000     4.645000000    -0.772000000
H    -1.171000000     4.024000000    -0.202000000
H    -0.835000000     5.493000000    -0.346000000
O     2.393000000    -0.176000000    -4.693000000
H     1.771000000     0.203000000    -5.314000000
H     2.365000000     0.411000000    -3.937000000
O    -1.678000000     1.066000000     6.130000000
H    -1.181000000     1.810000000     6.469000000
H    -2.405000000     0.963000000     6.744000000
O    -5.011000000    -3.999000000    -4.584000000
H    -5.199000000    -3.864000000    -3.655000000
H    -4.151000000    -3.600000000    -4.715000000
O     5.557000000     3.127000000     0.065000000
H     5.446000000     2.794000000    -0.826000000
H     6.172000000     2.518000000     0.473000000
O    -2.357000000    -4.624000000     1.576000000
H    -2.525000000    -3.794000000     2.022000000
H    -2.069000000    -4.372000000     0.699000000
O    -0.789000000     7.128000000     1.548000000
H    -0.661000000     7.944000000     2.031000000
H    -0.787000000     6.448000000     2.221000000
O    -4.685000000    -0.087000000    -5.135000000
H    -4.054000000     0.205000000    -4.478000000
H    -4.152000000    -0.516000000    -5.805000000
O    -4.148000000     4.375000000    -0.798000000
H    -3.987000000     5.029000000    -0.118000000
H    -3.483000000     3.703000000    -0.647000000
O    -2.350000000     2.648000000     0.757000000
H    -2.337000000     2.834000000     1.696000000
H    -1.840000000     1.843000000     0.665000000
O    -3.261000000    -4.537000000     4.811000000
H    -3.005000000    -3.777000000     4.289000000
H    -3.440000000    -4.180000000     5.681000000
O    -2.044000000     2.753000000     3.741000000
H    -2.930000000     2.893000000     4.075000000
H    -1.655000000     2.126000000     4.350000000
O    -4.901000000    -1.544000000     2.295000000
H    -5.739000000    -1.985000000     2.150000000
H    -5.128000000    -0.617000000     2.368000000
O    -2.292000000    -2.360000000     3.329000000
H    -1.671000000    -1.750000000     3.727000000
H    -3.005000000    -1.804000000     3.015000000
O    -0.081000000    -3.317000000     5.472000000
H    -0.160000000    -3.245000000     6.423000000
H    -0.380000000    -2.470000000     5.141000000
O    -3.121000000     0.269000000    -1.062000000
H    -2.522000000    -0.476000000    -1.017000000
H    -2.585000000     0.986000000    -1.401000000
O    -0.760000000     5.111000000     3.407000000
H    -0.526000000     5.403000000     4.288000000
H    -1.226000000     4.286000000     3.543000000
O     0.781000000     1.777000000    -5.955000000
H    -0.045000000     1.365000000    -5.700000000
H     0.540000000     2.675000000    -6.182000000
O     3.151000000     2.974000000    -4.495000000
H     2.508000000     3.412000000    -3.937000000
H     2.631000000     2.390000000    -5.047000000
O     1.814000000     0.843000000     3.660000000
H     1.558000000     1.414000000     4.384000000
H     2.270000000     1.422000000     3.048000000
O     1.789000000    -6.149000000     0.152000000
H     1.643000000    -6.560000000     1.004000000
H     1.835000000    -5.212000000     0.342000000
O    -2.095000000     3.134000000    -2.819000000
H    -1.809000000     3.637000000    -2.056000000
H    -2.954000000     3.497000000    -3.036000000
O     1.113000000     4.045000000    -2.921000000
H     0.491000000     3.953000000    -2.199000000
H     0.766000000     4.768000000    -3.445000000
O     4.498000000     2.487000000     6.153000000
H     4.470000000     2.027000000     6.992000000
H     3.617000000     2.380000000     5.792000000
O     3.682000000    -3.162000000     2.363000000
H     3.702000000    -3.362000000     3.298000000
H     3.673000000    -2.206000000     2.322000000
O     1.524000000    -5.031000000    -5.469000000
H     1.021000000    -5.124000000    -4.659000000
H     0.864000000    -4.873000000    -6.144000000
O     0.360000000    -4.992000000     3.247000000
H    -0.398000000    -4.724000000     2.727000000
H     0.158000000    -4.695000000     4.134000000
O     4.759000000    -1.786000000    -4.260000000
H     3.953000000    -1.274000000    -4.184000000
H     4.605000000    -2.364000000    -5.008000000
O     3.227000000    -0.649000000     1.819000000
H     3.009000000     0.018000000     2.471000000
H     2.560000000    -0.548000000     1.141000000
O     2.132000000    -3.020000000    -2.317000000
H     1.987000000    -3.251000000    -1.400000000
H     1.273000000    -3.122000000    -2.728000000
O    -3.219000000    -5.193000000    -1.640000000
H    -2.633000000    -5.933000000    -1.480000000
H    -2.686000000    -4.421000000    -1.448000000
O    -0.293000000    -0.843000000     4.996000000
H    -0.749000000    -0.037000000     5.241000000
H     0.584000000    -0.555000000     4.744000000
O     2.997000000     4.854000000    -0.441000000
H     2.537000000     4.733000000    -1.271000000
H     3.871000000     5.154000000    -0.692000000
O     2.527000000    -2.790000000     5.467000000
H     2.894000000    -3.664000000     5.601000000
H     1.598000000    -2.945000000     5.292000000
O    -2.216000000    -2.458000000    -4.861000000
H    -1.725000000    -3.180000000    -5.253000000
H    -1.762000000    -2.280000000    -4.037000000
O     1.581000000     1.946000000     6.092000000
H     1.668000000     2.754000000     6.598000000
H     1.366000000     1.278000000     6.744000000
