158
-3005.85201
C     0.351000000    -0.724000000    -1.308000000
H     0.812000000    -1.121000000    -2.209000000
C     1.069000000    -0.794000000    -0.075000000
H     2.057000000    -1.241000000     0.006000000
C     0.688000000    -0.067000000     1.032000000
H     1.336000000    -0.076000000     1.859000000
C    -0.444000000     0.735000000     0.940000000
H    -0.774000000     1.273000000     1.826000000
C    -1.221000000     0.744000000    -0.225000000
H    -2.119000000     1.355000000    -0.240000000
C    -0.870000000     0.050000000    -1.391000000
C    -1.720000000     0.076000000    -2.597000000
O    -1.347000000    -0.517000000    -3.600000000
O    -2.629000000     0.827000000    -2.616000000
O    -3.307000000     5.352000000    -4.947000000
H    -3.596000000     4.465000000    -5.162000000
H    -4.063000000     5.753000000    -4.518000000
O    -4.292000000    -1.938000000    -2.168000000
H    -3.494000000    -2.467000000    -2.160000000
H    -4.337000000    -1.560000000    -1.290000000
O    -1.827000000    -3.011000000    -3.141000000
H    -1.342000000    -3.099000000    -2.320000000
H    -1.406000000    -2.280000000    -3.592000000
O    -3.653000000    -4.616000000    -4.635000000
H    -3.195000000    -4.192000000    -3.909000000
H    -3.755000000    -5.526000000    -4.355000000
O     0.830000000     3.945000000    -0.955000000
H    -0.061000000     3.714000000    -0.694000000
H     1.013000000     3.381000000    -1.706000000
O     1.851000000    -3.376000000     5.578000000
H     1.812000000    -2.422000000     5.512000000
H     1.574000000    -3.566000000     6.475000000
O     2.073000000     1.483000000    -6.478000000
H     2.123000000     1.143000000    -5.584000000
H     2.972000000     1.431000000    -6.804000000
O    -0.080000000     0.161000000     6.315000000
H    -0.439000000    -0.705000000     6.506000000
H    -0.295000000     0.686000000     7.087000000
O    -4.908000000     1.712000000    -1.553000000
H    -3.958000000     1.596000000    -1.551000000
H    -5.235000000     1.006000000    -2.111000000
O    -4.595000000    -1.553000000     0.496000000
H    -4.946000000    -2.062000000     1.227000000
H    -4.751000000    -0.641000000     0.742000000
O     4.655000000     0.249000000    -1.945000000
H     5.442000000     0.206000000    -2.487000000
H     4.925000000    -0.114000000    -1.101000000
O    -3.956000000    -0.246000000    -4.752000000
H    -3.795000000    -0.985000000    -4.165000000
H    -3.687000000     0.523000000    -4.248000000
O    -2.817000000     3.583000000     2.659000000
H    -3.700000000     3.695000000     3.010000000
H    -2.411000000     2.934000000     3.234000000
O     5.044000000    -1.333000000     0.122000000
H     5.221000000    -2.104000000    -0.416000000
H     4.578000000    -1.675000000     0.885000000
O    -1.593000000     1.639000000     4.339000000
H    -0.963000000     1.383000000     5.013000000
H    -2.094000000     0.843000000     4.164000000
O     2.138000000     2.273000000    -2.658000000
H     2.450000000     2.043000000    -1.783000000
H     1.722000000     1.474000000    -2.982000000
O    -2.143000000     4.767000000     0.085000000
H    -2.566000000     4.175000000    -0.538000000
H    -2.423000000     4.452000000     0.944000000
O    -1.055000000    -3.193000000     1.274000000
H    -0.603000000    -3.378000000     2.097000000
H    -1.100000000    -2.238000000     1.234000000
O     2.825000000    -0.168000000    -4.546000000
H     3.517000000     0.085000000    -3.935000000
H     2.601000000    -1.065000000    -4.295000000
O    -4.784000000     3.063000000    -5.593000000
H    -5.460000000     2.570000000    -5.129000000
H    -4.909000000     2.834000000    -6.514000000
O    -0.695000000     5.845000000    -2.493000000
H    -1.138000000     4.999000000    -2.424000000
H     0.082000000     5.665000000    -3.023000000
O     3.082000000    -4.539000000    -1.834000000
H     2.577000000    -5.327000000    -1.631000000
H     3.374000000    -4.215000000    -0.982000000
O     0.745000000    -4.296000000     3.085000000
H     1.242000000    -5.040000000     2.745000000
H     1.266000000    -3.976000000     3.821000000
O     2.640000000    -0.763000000     5.529000000
H     3.328000000    -0.261000000     5.966000000
H     1.895000000    -0.163000000     5.488000000
O     0.493000000     3.614000000     4.480000000
H    -0.378000000     3.224000000     4.418000000
H     0.823000000     3.607000000     3.581000000
O     3.687000000     2.827000000     4.898000000
H     2.741000000     2.817000000     5.043000000
H     4.064000000     2.682000000     5.766000000
O     6.269000000    -0.051000000     4.151000000
H     5.552000000    -0.328000000     4.721000000
H     7.020000000     0.039000000     4.738000000
O     1.455000000     3.967000000     1.789000000
H     1.164000000     4.469000000     1.028000000
H     2.205000000     3.464000000     1.471000000
O     5.250000000    -2.957000000    -4.715000000
H     4.368000000    -2.922000000    -4.346000000
H     5.238000000    -2.318000000    -5.427000000
O     2.504000000    -2.846000000    -3.856000000
H     1.808000000    -3.217000000    -4.399000000
H     2.427000000    -3.306000000    -3.020000000
O    -6.531000000     4.284000000    -1.419000000
H    -5.923000000     3.548000000    -1.342000000
H    -6.071000000     4.918000000    -1.969000000
O     4.111000000    -2.267000000     2.612000000
H     4.826000000    -2.697000000     3.082000000
H     3.845000000    -1.548000000     3.185000000
O     5.538000000    -5.291000000     1.347000000
H     6.249000000    -5.243000000     0.708000000
H     4.840000000    -4.756000000     0.969000000
O    -3.308000000    -0.436000000     3.772000000
H    -3.086000000    -1.331000000     3.519000000
H    -3.656000000    -0.517000000     4.660000000
O    -6.344000000     0.977000000    -4.157000000
H    -6.764000000     0.392000000    -3.526000000
H    -5.710000000     0.423000000    -4.612000000
O    -0.370000000    -0.380000000    -6.021000000
H     0.583000000    -0.400000000    -5.934000000
H    -0.694000000    -0.421000000    -5.121000000
O     4.766000000     4.596000000     2.986000000
H     4.260000000     4.042000000     3.580000000
H     5.421000000     5.012000000     3.546000000
O    -1.692000000    -3.467000000     4.641000000
H    -0.862000000    -3.896000000     4.432000000
H    -2.327000000    -4.182000000     4.684000000
O     3.937000000     0.812000000     2.998000000
H     4.880000000     0.688000000     3.108000000
H     3.739000000     1.603000000     3.500000000
O    -4.809000000     1.094000000     1.718000000
H    -4.265000000     0.721000000     2.411000000
H    -4.876000000     2.023000000     1.939000000
O    -7.219000000    -0.030000000     1.197000000
H    -7.519000000     0.698000000     1.741000000
H    -6.391000000     0.274000000     0.825000000
O    -6.997000000    -1.194000000    -2.728000000
H    -7.396000000    -1.682000000    -2.008000000
H    -6.073000000    -1.446000000    -2.705000000
O     3.254000000    -4.032000000     0.733000000
H     3.318000000    -3.296000000     1.343000000
H     2.871000000    -4.739000000     1.252000000
O    -2.805000000    -0.101000000    -7.519000000
H    -3.227000000     0.113000000    -6.687000000
H    -1.872000000    -0.146000000    -7.309000000
O     2.896000000     1.736000000     0.331000000
H     3.269000000     1.217000000     1.043000000
H     1.951000000     1.605000000     0.409000000
O    -1.617000000     3.277000000    -2.722000000
H    -1.835000000     3.599000000    -3.597000000
H    -1.999000000     2.400000000    -2.688000000
O     5.486000000    -3.245000000    -1.714000000
H     6.080000000    -3.159000000    -2.460000000
H     4.812000000    -3.855000000    -2.013000000
O    -0.265000000    -3.629000000    -1.121000000
H     0.540000000    -4.129000000    -0.993000000
H    -0.528000000    -3.368000000    -0.238000000
