158
-3024.61396
C     0.427000000    -0.419000000    -1.393000000
H     0.874000000    -0.711000000    -2.340000000
C     1.145000000    -0.734000000    -0.195000000
H     2.087000000    -1.270000000    -0.273000000
C     0.663000000    -0.220000000     1.015000000
H     1.220000000    -0.419000000     1.887000000
C    -0.420000000     0.611000000     1.007000000
H    -0.671000000     0.957000000     2.006000000
C    -1.215000000     0.756000000    -0.108000000
H    -2.147000000     1.316000000    -0.099000000
C    -0.776000000     0.306000000    -1.339000000
C    -1.676000000     0.537000000    -2.553000000
O    -1.249000000     0.369000000    -3.681000000
O    -2.865000000     0.838000000    -2.450000000
O     3.279000000    -3.647000000     5.939000000
H     2.607000000    -3.843000000     5.286000000
H     4.096000000    -3.945000000     5.539000000
O     6.783000000    -2.439000000     2.487000000
H     6.571000000    -2.451000000     1.553000000
H     7.026000000    -1.530000000     2.665000000
O     1.517000000     4.394000000    -5.152000000
H     1.349000000     3.738000000    -4.476000000
H     1.838000000     5.157000000    -4.671000000
O     3.573000000    -1.316000000    -6.248000000
H     3.145000000    -1.718000000    -5.491000000
H     4.218000000    -1.964000000    -6.530000000
O    -3.935000000    -3.217000000    -2.076000000
H    -3.893000000    -4.163000000    -2.218000000
H    -4.638000000    -3.102000000    -1.437000000
O     3.065000000    -3.121000000     1.663000000
H     2.437000000    -3.287000000     0.960000000
H     2.827000000    -3.743000000     2.350000000
O    -0.626000000    -2.376000000    -4.068000000
H    -0.677000000    -2.957000000    -3.309000000
H    -1.248000000    -1.674000000    -3.874000000
O    -2.468000000     4.513000000    -0.451000000
H    -3.372000000     4.359000000    -0.175000000
H    -2.410000000     4.110000000    -1.316000000
O     5.130000000    -4.272000000     0.064000000
H     5.573000000    -4.828000000     0.705000000
H     4.384000000    -3.906000000     0.539000000
O    -5.108000000     3.126000000     0.673000000
H    -4.995000000     2.301000000     0.201000000
H    -5.824000000     2.956000000     1.284000000
O    -1.845000000    -4.595000000    -5.487000000
H    -1.815000000    -3.670000000    -5.245000000
H    -1.069000000    -4.726000000    -6.031000000
O    -0.996000000    -3.697000000    -1.784000000
H    -1.895000000    -3.374000000    -1.844000000
H    -0.870000000    -3.886000000    -0.854000000
O     3.890000000     1.369000000    -5.347000000
H     3.003000000     1.467000000    -5.001000000
H     3.923000000     0.470000000    -5.673000000
O    -3.644000000    -1.446000000    -4.060000000
H    -3.849000000    -2.046000000    -3.343000000
H    -3.419000000    -0.623000000    -3.626000000
O    -5.069000000    -1.046000000     2.018000000
H    -5.221000000    -0.747000000     2.915000000
H    -4.806000000    -1.961000000     2.112000000
O     4.123000000     0.843000000    -0.490000000
H     4.597000000     0.164000000    -0.969000000
H     3.724000000     0.381000000     0.247000000
O    -2.793000000     1.300000000     4.751000000
H    -2.519000000     1.372000000     5.665000000
H    -2.047000000     1.631000000     4.251000000
O     1.984000000     2.178000000    -1.077000000
H     1.442000000     1.446000000    -0.782000000
H     2.882000000     1.899000000    -0.896000000
O    -3.899000000     4.224000000     3.568000000
H    -3.159000000     3.642000000     3.740000000
H    -4.392000000     3.786000000     2.873000000
O    -2.431000000    -1.510000000     4.311000000
H    -2.356000000    -0.560000000     4.396000000
H    -1.571000000    -1.791000000     3.999000000
O     1.446000000     1.629000000    -3.942000000
H     1.643000000     1.754000000    -3.014000000
H     0.600000000     1.182000000    -3.949000000
O    -3.512000000     4.252000000    -3.102000000
H    -2.831000000     4.920000000    -3.016000000
H    -4.330000000     4.723000000    -2.944000000
O     2.225000000    -2.732000000    -3.828000000
H     1.269000000    -2.701000000    -3.827000000
H     2.440000000    -3.517000000    -3.323000000
O     0.119000000    -2.239000000     3.416000000
H     0.567000000    -3.085000000     3.424000000
H     0.714000000    -1.648000000     3.877000000
O    -0.781000000     3.496000000     3.743000000
H    -0.009000000     3.122000000     4.168000000
H    -0.527000000     3.590000000     2.825000000
O     3.210000000     4.565000000     4.337000000
H     3.465000000     4.654000000     5.255000000
H     3.308000000     3.632000000     4.150000000
O     3.900000000    -0.880000000     5.150000000
H     3.823000000    -1.752000000     5.537000000
H     4.634000000    -0.476000000     5.613000000
O     0.542000000     3.899000000     1.341000000
H    -0.066000000     4.001000000     0.609000000
H     1.410000000     3.952000000     0.941000000
O     0.120000000    -0.393000000    -6.667000000
H     0.578000000    -1.174000000    -6.977000000
H     0.092000000    -0.494000000    -5.715000000
O     4.062000000    -0.435000000     2.355000000
H     4.033000000    -0.586000000     3.299000000
H     3.944000000    -1.303000000     1.970000000
O     6.050000000     1.887000000     1.662000000
H     5.330000000     1.886000000     2.292000000
H     5.689000000     1.460000000     0.884000000
O     0.923000000    -0.552000000     6.061000000
H     1.657000000    -1.139000000     5.883000000
H     0.295000000    -1.092000000     6.541000000
O    -7.884000000     2.388000000    -0.868000000
H    -7.985000000     2.479000000     0.080000000
H    -6.949000000     2.231000000    -0.995000000
O    -4.528000000     1.787000000    -7.396000000
H    -3.716000000     1.360000000    -7.124000000
H    -5.156000000     1.568000000    -6.707000000
O     0.894000000     2.137000000     5.406000000
H     1.264000000     2.663000000     6.115000000
H     0.891000000     1.243000000     5.748000000
O    -2.617000000    -1.133000000    -6.672000000
H    -1.869000000    -0.539000000    -6.735000000
H    -2.656000000    -1.371000000    -5.746000000
O    -3.673000000    -3.320000000     2.106000000
H    -2.866000000    -3.287000000     1.593000000
H    -3.381000000    -3.277000000     3.016000000
O     1.438000000    -4.403000000     3.921000000
H     2.113000000    -5.072000000     3.808000000
H     0.677000000    -4.884000000     4.246000000
O    -0.791000000     4.181000000    -6.427000000
H     0.097000000     4.312000000    -6.096000000
H    -0.977000000     3.258000000    -6.255000000
O     5.570000000    -4.214000000     4.127000000
H     6.452000000    -4.466000000     4.401000000
H     5.702000000    -3.449000000     3.567000000
O    -5.163000000     0.942000000    -0.980000000
H    -5.071000000     0.114000000    -0.508000000
H    -4.399000000     0.975000000    -1.556000000
O     1.976000000    -5.224000000     0.040000000
H     1.771000000    -5.236000000    -0.895000000
H     2.013000000    -6.147000000     0.289000000
O    -7.342000000     1.108000000    -4.805000000
H    -6.464000000     1.110000000    -4.423000000
H    -7.891000000     0.693000000    -4.141000000
O     3.720000000     2.067000000     3.804000000
H     3.578000000     1.479000000     3.062000000
H     3.418000000     1.570000000     4.565000000
O    -4.815000000     2.024000000    -4.231000000
H    -4.528000000     1.519000000    -3.470000000
H    -4.484000000     2.907000000    -4.071000000
O    -2.253000000     1.814000000    -5.551000000
H    -1.781000000     1.312000000    -4.887000000
H    -3.165000000     1.796000000    -5.261000000
O     4.346000000    -1.256000000    -2.091000000
H     4.886000000    -1.988000000    -2.388000000
H     3.862000000    -0.983000000    -2.870000000
O    -0.951000000    -2.809000000     0.900000000
H    -0.509000000    -2.769000000     1.748000000
H    -0.918000000    -1.911000000     0.571000000
