158
-3015.05621
C    -0.601000000    -1.173000000    -0.621000000
H    -1.186000000    -2.043000000    -0.908000000
C     0.366000000    -1.242000000     0.369000000
H     0.655000000    -2.169000000     0.858000000
C     0.938000000    -0.051000000     0.871000000
H     1.579000000    -0.085000000     1.751000000
C     0.460000000     1.134000000     0.320000000
H     0.696000000     2.059000000     0.840000000
C    -0.465000000     1.204000000    -0.711000000
H    -0.795000000     2.198000000    -1.001000000
C    -0.926000000     0.039000000    -1.293000000
C    -2.029000000     0.029000000    -2.359000000
O    -2.219000000    -0.946000000    -3.036000000
O    -2.529000000     1.092000000    -2.712000000
O     5.040000000     5.102000000     0.524000000
H     4.333000000     4.524000000     0.238000000
H     5.169000000     5.704000000    -0.210000000
O    -3.126000000     3.612000000    -2.606000000
H    -2.821000000     2.740000000    -2.859000000
H    -2.403000000     3.980000000    -2.098000000
O     0.165000000    -1.298000000     4.001000000
H    -0.185000000    -1.474000000     4.875000000
H     0.199000000    -2.157000000     3.580000000
O     4.740000000    -1.931000000     3.874000000
H     4.447000000    -2.835000000     3.760000000
H     5.424000000    -1.984000000     4.542000000
O    -0.221000000    -1.103000000    -5.078000000
H    -1.093000000    -0.827000000    -4.795000000
H    -0.025000000    -1.868000000    -4.538000000
O     6.476000000     1.866000000     2.739000000
H     5.593000000     2.188000000     2.560000000
H     6.347000000     1.144000000     3.355000000
O    -2.283000000     0.811000000    -5.398000000
H    -1.394000000     1.016000000    -5.688000000
H    -2.339000000     1.177000000    -4.516000000
O     0.227000000    -5.780000000    -0.313000000
H    -0.076000000    -6.033000000     0.559000000
H     0.892000000    -5.111000000    -0.151000000
O    -3.622000000    -5.893000000     0.183000000
H    -4.531000000    -6.074000000    -0.055000000
H    -3.374000000    -5.149000000    -0.366000000
O    -0.195000000     7.336000000     1.091000000
H    -0.224000000     7.495000000     2.034000000
H     0.151000000     6.447000000     1.009000000
O     2.963000000    -4.883000000    -2.623000000
H     3.752000000    -5.157000000    -3.091000000
H     3.258000000    -4.730000000    -1.725000000
O     3.540000000    -2.035000000     0.882000000
H     3.352000000    -1.872000000     1.807000000
H     3.744000000    -1.171000000     0.524000000
O    -1.433000000     0.812000000     2.514000000
H    -1.002000000     0.737000000     1.663000000
H    -0.878000000     0.306000000     3.109000000
O     2.235000000     0.561000000    -2.220000000
H     1.525000000     0.471000000    -1.585000000
H     2.542000000    -0.335000000    -2.364000000
O     4.160000000    -4.441000000     4.593000000
H     4.891000000    -4.718000000     5.146000000
H     3.455000000    -4.246000000     5.209000000
O     1.196000000     0.732000000    -6.637000000
H     1.950000000     1.194000000    -6.272000000
H     1.093000000    -0.038000000    -6.077000000
O    -4.946000000     3.751000000    -0.119000000
H    -4.630000000     4.630000000     0.089000000
H    -4.420000000     3.479000000    -0.871000000
O    -7.186000000     2.204000000    -4.604000000
H    -7.652000000     1.389000000    -4.416000000
H    -6.286000000     2.035000000    -4.325000000
O     1.952000000    -3.280000000     6.134000000
H     1.938000000    -2.329000000     6.238000000
H     1.077000000    -3.498000000     5.811000000
O     6.240000000     0.416000000     0.199000000
H     5.332000000     0.714000000     0.149000000
H     6.656000000     1.018000000     0.816000000
O     0.980000000     3.090000000    -3.121000000
H     0.894000000     3.480000000    -3.991000000
H     1.445000000     2.267000000    -3.273000000
O    -3.073000000     5.046000000     3.045000000
H    -2.409000000     5.652000000     3.372000000
H    -2.671000000     4.182000000     3.129000000
O     4.017000000    -4.416000000    -0.276000000
H     3.933000000    -3.557000000     0.138000000
H     4.116000000    -5.025000000     0.456000000
O    -0.816000000     4.962000000    -1.981000000
H    -0.355000000     4.135000000    -2.127000000
H    -0.122000000     5.620000000    -1.950000000
O    -1.052000000     0.284000000     6.448000000
H    -1.632000000    -0.462000000     6.295000000
H    -1.572000000     0.887000000     6.980000000
O     3.577000000     1.519000000     0.159000000
H     3.357000000     2.213000000     0.780000000
H     2.964000000     1.642000000    -0.566000000
O    -1.905000000     2.848000000     4.123000000
H    -2.058000000     1.969000000     3.776000000
H    -1.174000000     2.740000000     4.732000000
O     1.883000000    -2.384000000    -3.020000000
H     2.267000000    -3.257000000    -2.933000000
H     1.078000000    -2.424000000    -2.504000000
O     0.110000000     4.539000000     2.032000000
H    -0.735000000     4.451000000     2.474000000
H     0.749000000     4.584000000     2.743000000
O    -5.141000000    -4.222000000    -4.435000000
H    -4.425000000    -4.712000000    -4.840000000
H    -4.885000000    -3.304000000    -4.527000000
O     0.641000000     2.160000000     5.487000000
H     0.196000000     1.364000000     5.777000000
H     1.320000000     1.851000000     4.888000000
O    -4.640000000    -1.624000000    -5.222000000
H    -4.055000000    -1.060000000    -4.717000000
H    -4.214000000    -1.707000000    -6.075000000
O    -0.438000000    -2.360000000    -7.386000000
H     0.349000000    -2.062000000    -7.842000000
H    -0.475000000    -1.822000000    -6.595000000
O     1.878000000     4.729000000     4.028000000
H     2.177000000     5.585000000     3.721000000
H     1.952000000     4.777000000     4.981000000
O    -0.010000000    -4.028000000     2.827000000
H     0.845000000    -4.457000000     2.878000000
H    -0.624000000    -4.740000000     2.644000000
O     3.494000000     2.454000000     2.751000000
H     3.056000000     3.217000000     3.126000000
H     3.390000000     1.769000000     3.411000000
O     2.411000000    -5.241000000     2.536000000
H     2.724000000    -5.888000000     1.904000000
H     3.101000000    -5.200000000     3.198000000
O    -2.358000000    -2.230000000     2.040000000
H    -1.973000000    -1.446000000     2.430000000
H    -1.641000000    -2.863000000     2.017000000
O    -3.231000000    -3.267000000    -1.584000000
H    -4.172000000    -3.211000000    -1.751000000
H    -2.879000000    -2.442000000    -1.920000000
O    -1.856000000     6.290000000    -4.496000000
H    -2.301000000     5.641000000    -5.041000000
H    -1.537000000     5.792000000    -3.744000000
O    -5.143000000    -2.531000000     0.958000000
H    -5.064000000    -2.454000000     0.007000000
H    -4.294000000    -2.868000000     1.243000000
O    -4.555000000     1.981000000    -6.663000000
H    -4.806000000     2.614000000    -5.990000000
H    -3.788000000     1.538000000    -6.301000000
O     3.198000000     0.493000000     4.673000000
H     3.365000000     0.309000000     5.597000000
H     3.512000000    -0.285000000     4.213000000
O    -4.966000000     1.140000000    -3.530000000
H    -5.291000000     0.312000000    -3.176000000
H    -4.109000000     1.255000000    -3.119000000
O    -2.043000000    -5.786000000    -2.989000000
H    -1.634000000    -5.631000000    -2.137000000
H    -2.578000000    -6.569000000    -2.860000000
O     2.790000000     4.664000000    -1.427000000
H     2.639000000     3.830000000    -1.872000000
H     2.425000000     5.322000000    -2.020000000
O    -0.748000000    -3.640000000     5.448000000
H    -1.671000000    -3.643000000     5.702000000
H    -0.751000000    -3.927000000     4.534000000
O    -0.930000000    -3.336000000    -3.595000000
H    -1.504000000    -4.070000000    -3.376000000
H    -1.349000000    -2.576000000    -3.191000000
