158
-3025.42403
C    -0.236000000    -0.494000000    -1.295000000
H    -0.420000000    -0.968000000    -2.256000000
C    -0.455000000    -1.187000000    -0.153000000
H    -0.863000000    -2.190000000    -0.249000000
C    -0.316000000    -0.586000000     1.087000000
H    -0.560000000    -1.057000000     2.054000000
C     0.038000000     0.775000000     1.043000000
H     0.008000000     1.251000000     2.020000000
C     0.402000000     1.437000000    -0.103000000
H     0.786000000     2.453000000    -0.046000000
C     0.310000000     0.804000000    -1.316000000
C     0.779000000     1.512000000    -2.592000000
O     0.463000000     1.084000000    -3.677000000
O     1.352000000     2.608000000    -2.511000000
O    -2.152000000    -3.909000000     2.735000000
H    -2.613000000    -3.656000000     1.936000000
H    -2.456000000    -4.798000000     2.916000000
O     5.093000000     4.643000000     1.636000000
H     4.152000000     4.474000000     1.609000000
H     5.495000000     3.794000000     1.451000000
O     2.796000000     6.378000000    -1.947000000
H     2.526000000     7.297000000    -1.967000000
H     2.714000000     6.085000000    -2.854000000
O    -0.202000000     4.760000000    -1.204000000
H     0.321000000     4.088000000    -1.642000000
H    -0.275000000     4.455000000    -0.300000000
O     3.618000000     0.720000000     2.495000000
H     2.812000000     0.248000000     2.704000000
H     3.801000000     0.491000000     1.584000000
O     1.732000000     1.486000000    -6.085000000
H     0.997000000     1.363000000    -6.685000000
H     1.341000000     1.441000000    -5.213000000
O    -1.731000000     2.919000000    -4.351000000
H    -1.383000000     3.378000000    -5.116000000
H    -0.987000000     2.423000000    -4.010000000
O    -1.534000000     6.952000000    -0.259000000
H    -0.808000000     6.667000000    -0.814000000
H    -2.164000000     6.232000000    -0.302000000
O     5.180000000     4.901000000    -2.434000000
H     4.406000000     5.377000000    -2.131000000
H     4.937000000     3.978000000    -2.360000000
O    -3.231000000     0.944000000    -0.095000000
H    -2.345000000     1.042000000    -0.445000000
H    -3.792000000     0.914000000    -0.870000000
O     3.360000000     4.924000000    -4.499000000
H     4.207000000     4.819000000    -4.066000000
H     3.078000000     4.030000000    -4.694000000
O    -1.080000000     3.910000000     1.260000000
H    -1.162000000     4.005000000     2.209000000
H    -1.977000000     3.974000000     0.934000000
O     3.138000000    -4.012000000    -1.818000000
H     3.098000000    -3.880000000    -0.871000000
H     2.562000000    -3.339000000    -2.179000000
O     5.588000000    -0.360000000     0.592000000
H     5.492000000    -1.155000000     1.117000000
H     4.758000000    -0.282000000     0.121000000
O    -2.049000000     4.467000000     3.785000000
H    -2.658000000     5.042000000     4.248000000
H    -1.672000000     3.916000000     4.471000000
O     4.357000000     1.236000000    -6.365000000
H     3.479000000     1.476000000    -6.069000000
H     4.832000000     2.066000000    -6.407000000
O    -5.110000000     1.246000000     3.479000000
H    -4.284000000     1.331000000     3.004000000
H    -4.894000000     0.709000000     4.241000000
O    -3.896000000     4.040000000    -2.825000000
H    -4.678000000     3.573000000    -3.120000000
H    -3.187000000     3.677000000    -3.355000000
O    -3.987000000     0.243000000     5.584000000
H    -3.458000000    -0.537000000     5.417000000
H    -3.838000000     0.439000000     6.509000000
O     2.789000000     4.018000000    -0.818000000
H     2.735000000     4.970000000    -0.897000000
H     2.347000000     3.687000000    -1.600000000
O     2.594000000    -3.464000000     1.431000000
H     3.151000000    -4.078000000     1.909000000
H     1.740000000    -3.893000000     1.395000000
O    -1.384000000     2.253000000     5.681000000
H    -1.107000000     1.349000000     5.831000000
H    -2.196000000     2.340000000     6.180000000
O     1.143000000     6.051000000     2.208000000
H     1.474000000     5.154000000     2.182000000
H     0.205000000     5.966000000     2.036000000
O     0.617000000    -4.547000000     3.671000000
H     0.000000000    -4.073000000     3.113000000
H     0.067000000    -4.967000000     4.333000000
O     1.412000000    -0.437000000     4.071000000
H     0.552000000    -0.478000000     4.488000000
H     1.731000000    -1.339000000     4.092000000
O     2.615000000     0.760000000     6.643000000
H     3.028000000     0.989000000     5.810000000
H     2.048000000     0.018000000     6.433000000
O    -0.537000000    -4.446000000     6.345000000
H    -0.598000000    -3.580000000     6.747000000
H    -1.405000000    -4.830000000     6.471000000
O     5.154000000    -0.411000000    -2.981000000
H     5.572000000    -1.266000000    -3.076000000
H     4.217000000    -0.593000000    -3.052000000
O     3.679000000     4.173000000     5.002000000
H     2.976000000     4.722000000     5.350000000
H     3.343000000     3.856000000     4.164000000
O     0.384000000    -3.841000000    -3.736000000
H    -0.510000000    -4.160000000    -3.609000000
H     0.276000000    -2.967000000    -4.110000000
O     0.044000000    -1.296000000    -4.777000000
H    -0.007000000    -0.473000000    -4.292000000
H    -0.453000000    -1.134000000    -5.578000000
O     2.103000000    -2.870000000     5.145000000
H     2.370000000    -3.414000000     5.886000000
H     1.728000000    -3.487000000     4.517000000
O     2.926000000    -0.950000000     0.275000000
H     2.930000000    -1.704000000     0.865000000
H     2.021000000    -0.889000000    -0.031000000
O    -3.372000000    -1.062000000     1.880000000
H    -3.744000000    -0.235000000     1.574000000
H    -2.805000000    -1.350000000     1.164000000
O    -3.492000000    -2.800000000    -2.879000000
H    -2.830000000    -3.429000000    -3.166000000
H    -3.683000000    -3.049000000    -1.975000000
O    -3.326000000     1.111000000    -4.934000000
H    -2.727000000     1.849000000    -4.824000000
H    -3.849000000     1.339000000    -5.702000000
O    -0.773000000    -0.675000000     5.877000000
H    -1.567000000    -1.121000000     5.579000000
H    -0.290000000    -1.345000000     6.361000000
O     0.910000000    -6.421000000    -2.953000000
H     0.084000000    -6.660000000    -2.533000000
H     0.804000000    -5.497000000    -3.182000000
O    -3.524000000    -3.571000000     0.014000000
H    -4.127000000    -2.838000000     0.137000000
H    -4.076000000    -4.350000000     0.085000000
O    -4.511000000    -0.081000000    -2.589000000
H    -4.029000000    -0.907000000    -2.554000000
H    -4.194000000     0.348000000    -3.384000000
O    -2.096000000    -4.809000000    -3.525000000
H    -2.079000000    -5.722000000    -3.240000000
H    -2.594000000    -4.821000000    -4.342000000
O    -1.873000000    -0.520000000    -6.576000000
H    -2.537000000    -0.262000000    -5.936000000
H    -1.432000000     0.298000000    -6.806000000
O    -6.010000000    -2.776000000     3.432000000
H    -5.686000000    -2.359000000     2.634000000
H    -6.647000000    -3.421000000     3.124000000
O     2.528000000     3.638000000     1.897000000
H     2.460000000     2.710000000     2.123000000
H     2.501000000     3.654000000     0.941000000
O    -2.797000000    -1.825000000     4.492000000
H    -3.081000000    -1.455000000     3.656000000
H    -2.495000000    -2.706000000     4.273000000
O     0.458000000     4.129000000    -6.110000000
H     0.672000000     3.488000000    -5.432000000
H     1.219000000     4.126000000    -6.690000000
O     3.943000000     2.404000000    -3.099000000
H     3.053000000     2.284000000    -2.769000000
H     4.252000000     1.517000000    -3.283000000
O     3.010000000    -1.780000000    -4.104000000
H     3.477000000    -1.894000000    -4.932000000
H     2.121000000    -1.536000000    -4.362000000
