158
-3027.40383
C    -0.740000000    -0.637000000    -1.078000000
H    -1.162000000    -1.250000000    -1.871000000
C     0.215000000    -1.194000000    -0.243000000
H     0.290000000    -2.277000000    -0.304000000
C     0.833000000    -0.495000000     0.765000000
H     1.332000000    -1.086000000     1.491000000
C     0.611000000     0.838000000     0.828000000
H     1.015000000     1.550000000     1.544000000
C    -0.426000000     1.392000000     0.055000000
H    -0.680000000     2.443000000     0.162000000
C    -1.034000000     0.708000000    -0.932000000
C    -2.040000000     1.384000000    -1.824000000
O    -2.762000000     0.712000000    -2.530000000
O    -2.067000000     2.647000000    -1.891000000
O    -6.097000000     1.063000000    -6.022000000
H    -5.835000000     1.060000000    -5.102000000
H    -5.686000000     1.847000000    -6.386000000
O    -2.968000000     4.921000000    -1.636000000
H    -2.639000000     4.070000000    -1.928000000
H    -2.863000000     4.905000000    -0.685000000
O     0.313000000     0.564000000     4.492000000
H     0.768000000    -0.264000000     4.643000000
H    -0.529000000     0.459000000     4.936000000
O     6.219000000    -2.219000000     3.029000000
H     6.323000000    -2.115000000     3.974000000
H     6.756000000    -2.981000000     2.811000000
O    -0.962000000     0.638000000    -5.892000000
H    -1.122000000     1.413000000    -5.353000000
H    -1.484000000     0.783000000    -6.681000000
O     5.659000000     2.540000000     3.278000000
H     4.857000000     3.023000000     3.079000000
H     5.829000000     2.730000000     4.201000000
O    -2.570000000     2.824000000    -4.772000000
H    -1.911000000     3.505000000    -4.909000000
H    -2.493000000     2.601000000    -3.844000000
O    -5.902000000     6.222000000    -1.632000000
H    -5.098000000     5.766000000    -1.881000000
H    -6.351000000     6.388000000    -2.461000000
O    -4.616000000     2.409000000     0.184000000
H    -5.132000000     3.213000000     0.126000000
H    -3.794000000     2.619000000    -0.260000000
O     0.498000000    -4.519000000    -1.594000000
H     0.084000000    -4.887000000    -0.813000000
H     1.228000000    -4.000000000    -1.257000000
O    -2.287000000     4.513000000     1.356000000
H    -1.850000000     4.062000000     2.079000000
H    -3.206000000     4.259000000     1.436000000
O     2.862000000    -3.151000000    -3.752000000
H     3.738000000    -3.518000000    -3.866000000
H     2.817000000    -2.921000000    -2.824000000
O     4.655000000    -0.173000000     2.002000000
H     4.866000000     0.584000000     2.548000000
H     5.147000000    -0.895000000     2.393000000
O    -1.092000000     2.932000000     3.368000000
H    -1.476000000     2.069000000     3.519000000
H    -0.637000000     3.139000000     4.184000000
O     2.031000000     1.103000000    -1.899000000
H     1.260000000     0.697000000    -1.502000000
H     2.014000000     0.809000000    -2.810000000
O     2.558000000    -5.338000000     5.086000000
H     3.497000000    -5.179000000     4.994000000
H     2.402000000    -5.314000000     6.031000000
O    -7.049000000     3.443000000    -3.819000000
H    -7.401000000     2.877000000    -3.132000000
H    -6.119000000     3.221000000    -3.861000000
O    -7.069000000    -0.965000000    -1.332000000
H    -7.677000000    -0.378000000    -0.883000000
H    -6.204000000    -0.696000000    -1.023000000
O     4.488000000    -2.264000000     6.152000000
H     4.663000000    -3.201000000     6.065000000
H     3.629000000    -2.142000000     5.748000000
O     1.663000000    -2.120000000     5.057000000
H     1.455000000    -2.663000000     5.817000000
H     1.353000000    -2.629000000     4.308000000
O     0.154000000     4.567000000    -1.965000000
H     0.258000000     4.802000000    -2.887000000
H    -0.685000000     4.107000000    -1.929000000
O     2.950000000    -2.890000000    -0.857000000
H     3.340000000    -2.019000000    -0.933000000
H     3.518000000    -3.353000000    -0.241000000
O     0.420000000     5.427000000     0.797000000
H     0.472000000     5.466000000    -0.158000000
H    -0.518000000     5.391000000     0.985000000
O     7.305000000    -2.696000000    -0.677000000
H     6.456000000    -2.928000000    -0.301000000
H     7.153000000    -1.859000000    -1.116000000
O     4.037000000     1.813000000    -0.137000000
H     4.126000000     1.232000000     0.618000000
H     3.195000000     1.575000000    -0.525000000
O     4.293000000    -3.707000000     1.511000000
H     4.951000000    -3.214000000     2.000000000
H     4.794000000    -4.367000000     1.032000000
O     1.304000000    -0.061000000    -4.287000000
H     1.664000000    -0.877000000    -4.635000000
H     0.481000000     0.058000000    -4.760000000
O     1.046000000     6.301000000     3.353000000
H     0.819000000     5.785000000     2.579000000
H     0.306000000     6.897000000     3.468000000
O    -5.339000000    -2.225000000    -4.041000000
H    -5.187000000    -3.134000000    -4.300000000
H    -4.466000000    -1.834000000    -4.015000000
O     0.720000000     2.991000000     5.556000000
H     0.628000000     2.100000000     5.218000000
H     1.655000000     3.179000000     5.483000000
O    -2.863000000    -0.998000000    -4.370000000
H    -2.792000000    -0.272000000    -3.750000000
H    -3.015000000    -0.576000000    -5.216000000
O    -0.231000000    -4.711000000     1.073000000
H     0.472000000    -4.410000000     1.648000000
H    -0.810000000    -5.215000000     1.645000000
O    -5.671000000     0.580000000     1.672000000
H    -5.107000000     0.566000000     2.445000000
H    -5.210000000     1.142000000     1.049000000
O     3.418000000     3.964000000     2.503000000
H     3.241000000     3.786000000     1.580000000
H     2.562000000     4.176000000     2.875000000
O     1.827000000    -3.985000000     2.724000000
H     2.698000000    -3.911000000     2.334000000
H     1.931000000    -4.635000000     3.419000000
O    -0.859000000    -1.883000000     2.983000000
H    -0.441000000    -1.033000000     2.848000000
H    -0.763000000    -2.333000000     2.144000000
O     4.229000000    -0.792000000    -1.975000000
H     5.101000000    -0.396000000    -1.963000000
H     3.630000000    -0.056000000    -1.850000000
O    -4.266000000    -0.900000000    -1.166000000
H    -4.381000000    -1.595000000    -1.814000000
H    -3.777000000    -0.220000000    -1.629000000
O     0.009000000    -5.414000000    -4.061000000
H    -0.002000000    -4.893000000    -3.257000000
H     0.938000000    -5.519000000    -4.265000000
O    -3.056000000    -2.863000000     0.646000000
H    -3.735000000    -2.350000000     0.208000000
H    -2.289000000    -2.290000000     0.650000000
O    -4.546000000     3.150000000    -6.579000000
H    -4.374000000     3.940000000    -7.091000000
H    -3.750000000     3.021000000    -6.063000000
O    -5.218000000     0.986000000    -3.441000000
H    -5.531000000     0.122000000    -3.175000000
H    -4.352000000     1.062000000    -3.041000000
O    -3.967000000    -3.920000000    -1.731000000
H    -3.553000000    -3.780000000    -0.880000000
H    -3.780000000    -4.835000000    -1.941000000
O     3.177000000     4.547000000    -0.394000000
H     3.564000000     3.679000000    -0.514000000
H     2.245000000     4.377000000    -0.261000000
O    -3.049000000    -1.858000000     4.515000000
H    -2.133000000    -1.834000000     4.238000000
H    -3.509000000    -2.277000000     3.788000000
O    -0.228000000     4.390000000    -5.381000000
H    -0.508000000     4.302000000    -6.292000000
H     0.703000000     4.169000000    -5.394000000
O     2.289000000     3.467000000    -3.739000000
H     2.957000000     4.137000000    -3.593000000
H     1.984000000     3.237000000    -2.862000000
O    -1.505000000    -2.502000000    -6.247000000
H    -1.084000000    -1.682000000    -6.507000000
H    -1.747000000    -2.367000000    -5.331000000
