158
-3026.91411
C     0.211000000    -0.224000000    -1.490000000
H     0.341000000    -0.353000000    -2.561000000
C    -0.877000000     0.485000000    -0.929000000
H    -1.532000000     1.054000000    -1.584000000
C    -0.910000000     0.653000000     0.460000000
H    -1.697000000     1.325000000     0.923000000
C     0.036000000    -0.003000000     1.270000000
H    -0.015000000     0.168000000     2.342000000
C     0.984000000    -0.770000000     0.765000000
H     1.711000000    -1.108000000     1.500000000
C     1.147000000    -0.824000000    -0.645000000
C     2.354000000    -1.419000000    -1.301000000
O     2.273000000    -2.108000000    -2.325000000
O     3.439000000    -1.365000000    -0.874000000
O     1.182000000     1.862000000    -3.997000000
H     0.906000000     2.666000000    -3.556000000
H     2.090000000     2.027000000    -4.251000000
O    -3.150000000    -2.206000000    -1.531000000
H    -3.901000000    -1.699000000    -1.224000000
H    -3.056000000    -1.962000000    -2.452000000
O     0.451000000     0.078000000    -5.932000000
H     0.464000000    -0.873000000    -5.821000000
H     0.684000000     0.423000000    -5.070000000
O     5.288000000    -4.892000000     2.054000000
H     4.621000000    -4.775000000     2.730000000
H     5.230000000    -4.100000000     1.520000000
O     3.951000000     1.771000000     1.709000000
H     3.843000000     0.921000000     2.136000000
H     4.311000000     2.338000000     2.391000000
O    -1.583000000    -1.792000000    -4.665000000
H    -0.712000000    -2.142000000    -4.478000000
H    -1.836000000    -2.208000000    -5.490000000
O    -7.217000000     2.078000000     1.330000000
H    -7.492000000     2.856000000     0.846000000
H    -7.536000000     2.224000000     2.221000000
O    -3.768000000    -0.489000000     2.315000000
H    -3.150000000    -1.026000000     1.819000000
H    -4.504000000    -1.074000000     2.494000000
O    -2.089000000     5.457000000    -3.579000000
H    -1.287000000     5.057000000    -3.243000000
H    -1.912000000     6.397000000    -3.563000000
O     7.695000000    -2.586000000    -1.489000000
H     8.162000000    -3.065000000    -2.174000000
H     7.230000000    -1.892000000    -1.957000000
O     1.806000000     0.250000000     4.447000000
H     1.294000000     1.044000000     4.602000000
H     2.534000000     0.311000000     5.066000000
O    -3.256000000     0.397000000    -4.609000000
H    -2.498000000    -0.106000000    -4.314000000
H    -3.770000000     0.544000000    -3.815000000
O     1.116000000    -2.404000000    -4.837000000
H     1.135000000    -3.272000000    -5.240000000
H     1.714000000    -2.472000000    -4.093000000
O    -6.802000000    -0.832000000     2.402000000
H    -6.691000000    -0.157000000     1.733000000
H    -6.546000000    -0.405000000     3.219000000
O    -0.962000000    -5.156000000    -4.769000000
H    -1.908000000    -5.260000000    -4.662000000
H    -0.686000000    -4.662000000    -3.997000000
O    -4.406000000     1.040000000     0.206000000
H    -4.490000000     1.942000000     0.515000000
H    -3.845000000     0.616000000     0.856000000
O     4.214000000     1.840000000    -3.272000000
H     4.220000000     1.797000000    -2.316000000
H     5.114000000     2.065000000    -3.507000000
O     4.762000000    -2.374000000     1.176000000
H     4.238000000    -1.966000000     0.487000000
H     4.478000000    -1.941000000     1.981000000
O     7.231000000     1.472000000    -0.197000000
H     6.305000000     1.427000000    -0.432000000
H     7.399000000     0.654000000     0.272000000
O    -0.223000000    -3.865000000    -2.430000000
H     0.441000000    -3.176000000    -2.464000000
H     0.150000000    -4.529000000    -1.851000000
O     6.734000000    -0.812000000    -3.677000000
H     7.007000000     0.102000000    -3.754000000
H     5.799000000    -0.801000000    -3.882000000
O    -5.211000000    -3.028000000     1.429000000
H    -5.093000000    -3.917000000     1.095000000
H    -6.160000000    -2.896000000     1.430000000
O    -0.549000000    -2.688000000     5.851000000
H    -1.220000000    -2.082000000     5.537000000
H     0.134000000    -2.656000000     5.181000000
O    -4.193000000     2.313000000     2.816000000
H    -4.034000000     2.562000000     3.726000000
H    -4.230000000     1.356000000     2.832000000
O    -3.154000000     2.629000000    -6.224000000
H    -3.167000000     1.837000000    -5.686000000
H    -3.658000000     2.396000000    -7.004000000
O     0.370000000     4.325000000    -2.448000000
H     0.756000000     4.012000000    -1.630000000
H     0.649000000     5.239000000    -2.510000000
O    -1.477000000     4.381000000    -0.304000000
H    -0.904000000     4.039000000    -0.990000000
H    -1.111000000     5.241000000    -0.094000000
O     0.482000000    -3.930000000     1.789000000
H     0.375000000    -3.650000000     2.699000000
H    -0.289000000    -3.583000000     1.340000000
O     1.730000000     3.213000000    -0.087000000
H     2.655000000     3.435000000    -0.200000000
H     1.736000000     2.296000000     0.188000000
O     4.358000000    -3.576000000    -4.686000000
H     4.398000000    -3.743000000    -3.744000000
H     4.049000000    -2.673000000    -4.756000000
O    -1.842000000     1.101000000     6.543000000
H    -2.079000000     0.651000000     7.354000000
H    -1.644000000     0.396000000     5.927000000
O    -4.223000000     5.800000000     4.616000000
H    -3.557000000     5.289000000     4.155000000
H    -4.306000000     6.604000000     4.103000000
O     1.483000000    -2.493000000     4.269000000
H     1.569000000    -1.609000000     3.914000000
H     2.159000000    -2.546000000     4.945000000
O    -1.327000000    -2.412000000     0.532000000
H    -0.972000000    -1.526000000     0.609000000
H    -1.799000000    -2.409000000    -0.301000000
O    -4.109000000     3.978000000     0.406000000
H    -3.166000000     4.100000000     0.295000000
H    -4.199000000     3.585000000     1.274000000
O     2.300000000    -5.016000000    -0.164000000
H     1.853000000    -4.275000000     0.244000000
H     3.231000000    -4.800000000    -0.100000000
O    -5.886000000     3.355000000    -1.835000000
H    -5.186000000     3.702000000    -2.389000000
H    -5.674000000     3.671000000    -0.956000000
O    -0.411000000     4.129000000     3.097000000
H    -0.774000000     4.103000000     2.212000000
H     0.403000000     4.624000000     3.007000000
O     4.835000000    -0.583000000     3.385000000
H     5.671000000    -1.049000000     3.393000000
H     4.662000000    -0.387000000     4.306000000
O     3.718000000    -4.678000000     4.225000000
H     2.948000000    -4.146000000     4.425000000
H     3.923000000    -5.121000000     5.048000000
O    -2.900000000    -3.194000000     3.107000000
H    -2.205000000    -3.444000000     2.498000000
H    -3.705000000    -3.270000000     2.596000000
O    -4.741000000     0.519000000    -2.389000000
H    -4.572000000     0.757000000    -1.477000000
H    -5.545000000     0.989000000    -2.613000000
O    -3.500000000     2.819000000     5.474000000
H    -2.942000000     2.231000000     5.983000000
H    -3.761000000     3.498000000     6.096000000
O     0.279000000     2.309000000     4.979000000
H    -0.178000000     2.902000000     4.383000000
H    -0.407000000     1.974000000     5.556000000
O    -2.395000000    -0.883000000     4.662000000
H    -2.925000000    -0.302000000     4.116000000
H    -2.740000000    -1.758000000     4.486000000
O     4.655000000     0.997000000    -0.734000000
H     4.121000000     0.225000000    -0.921000000
H     4.357000000     1.291000000     0.127000000
O     4.708000000    -3.656000000    -1.863000000
H     3.981000000    -3.036000000    -1.811000000
H     5.444000000    -3.198000000    -1.456000000
O     3.970000000    -0.835000000    -3.899000000
H     3.307000000    -0.984000000    -3.225000000
H     4.087000000     0.115000000    -3.914000000
