158
-2986.77467
C     0.137000000    -1.372000000    -0.558000000
H     0.026000000    -2.406000000    -0.874000000
C    -1.018000000    -0.571000000    -0.568000000
H    -1.956000000    -1.039000000    -0.856000000
C    -0.966000000     0.775000000    -0.212000000
H    -1.905000000     1.311000000    -0.100000000
C     0.253000000     1.266000000     0.273000000
H     0.165000000     2.250000000     0.726000000
C     1.334000000     0.427000000     0.505000000
H     2.100000000     0.825000000     1.166000000
C     1.329000000    -0.874000000     0.008000000
C     2.430000000    -1.851000000     0.181000000
O     2.435000000    -2.843000000    -0.480000000
O     3.389000000    -1.647000000     0.908000000
O    -3.949000000    -4.465000000    -2.336000000
H    -3.404000000    -4.549000000    -1.553000000
H    -4.432000000    -5.290000000    -2.382000000
O    -0.090000000     1.840000000    -3.434000000
H     0.755000000     1.573000000    -3.074000000
H    -0.553000000     2.231000000    -2.693000000
O     5.797000000    -2.196000000     2.550000000
H     5.456000000    -1.797000000     3.351000000
H     5.155000000    -1.970000000     1.878000000
O     3.795000000     3.013000000     2.578000000
H     3.396000000     3.440000000     3.336000000
H     4.733000000     3.012000000     2.770000000
O    -0.741000000    -3.876000000    -2.947000000
H    -0.015000000    -4.466000000    -2.744000000
H    -1.339000000    -3.969000000    -2.206000000
O     1.910000000     4.135000000     4.578000000
H     1.348000000     3.368000000     4.468000000
H     1.321000000     4.820000000     4.895000000
O    -6.265000000     3.259000000     2.998000000
H    -5.355000000     3.537000000     3.105000000
H    -6.496000000     3.530000000     2.109000000
O    -4.777000000    -0.614000000    -1.716000000
H    -4.486000000    -1.504000000    -1.916000000
H    -4.840000000    -0.592000000    -0.761000000
O    -1.769000000     3.701000000    -1.532000000
H    -2.055000000     3.715000000    -0.618000000
H    -1.003000000     4.274000000    -1.552000000
O     7.961000000    -2.082000000    -1.637000000
H     7.103000000    -2.335000000    -1.298000000
H     7.904000000    -1.133000000    -1.752000000
O     2.565000000     0.939000000     4.585000000
H     1.917000000     1.349000000     4.012000000
H     2.154000000     0.939000000     5.450000000
O    -2.104000000    -2.845000000    -5.018000000
H    -1.926000000    -3.409000000    -4.265000000
H    -2.327000000    -1.997000000    -4.635000000
O     1.270000000    -5.135000000    -1.856000000
H     2.113000000    -5.266000000    -2.290000000
H     1.381000000    -4.325000000    -1.357000000
O    -3.526000000     3.824000000     3.243000000
H    -2.655000000     3.744000000     2.855000000
H    -3.461000000     4.583000000     3.823000000
O     2.112000000     1.732000000    -1.840000000
H     1.529000000     1.559000000    -1.101000000
H     2.876000000     1.178000000    -1.676000000
O    -5.382000000    -0.509000000     0.975000000
H    -4.824000000    -0.034000000     1.592000000
H    -6.162000000    -0.734000000     1.482000000
O     3.751000000    -4.698000000    -3.076000000
H     4.238000000    -4.559000000    -3.889000000
H     3.665000000    -3.823000000    -2.697000000
O     2.586000000    -1.764000000     3.351000000
H     2.966000000    -1.860000000     2.477000000
H     2.435000000    -0.824000000     3.444000000
O     7.921000000     0.589000000     1.839000000
H     7.988000000     0.533000000     2.793000000
H     7.085000000     0.171000000     1.633000000
O     3.300000000    -7.551000000    -0.303000000
H     2.743000000    -7.947000000    -0.973000000
H     2.906000000    -6.695000000    -0.138000000
O    -0.862000000    -6.820000000    -2.630000000
H    -0.107000000    -6.373000000    -2.247000000
H    -1.571000000    -6.673000000    -2.003000000
O     4.595000000     0.736000000    -1.680000000
H     4.669000000     1.482000000    -1.085000000
H     5.473000000     0.358000000    -1.700000000
O    -2.910000000     6.741000000     1.292000000
H    -2.513000000     7.580000000     1.057000000
H    -2.710000000     6.635000000     2.222000000
O     6.143000000    -6.259000000     1.047000000
H     5.324000000    -5.795000000     1.222000000
H     6.189000000    -6.311000000     0.092000000
O    -3.385000000     5.393000000    -2.968000000
H    -2.951000000     4.626000000    -2.596000000
H    -3.535000000     5.971000000    -2.220000000
O    -2.111000000     4.060000000    -5.101000000
H    -2.980000000     4.044000000    -5.502000000
H    -2.194000000     4.680000000    -4.376000000
O     0.454000000     5.206000000    -0.538000000
H     1.312000000     5.179000000    -0.115000000
H     0.646000000     5.393000000    -1.457000000
O    -1.076000000     4.692000000     2.081000000
H    -0.769000000     5.040000000     1.244000000
H    -0.618000000     5.214000000     2.740000000
O     1.819000000    -5.868000000     2.167000000
H     1.160000000    -6.489000000     1.855000000
H     1.836000000    -5.995000000     3.116000000
O     2.881000000     5.162000000     0.898000000
H     3.150000000     4.446000000     1.473000000
H     2.918000000     5.942000000     1.451000000
O    -4.578000000     2.395000000    -1.733000000
H    -3.996000000     1.639000000    -1.655000000
H    -4.128000000     3.093000000    -1.258000000
O     6.394000000    -5.423000000    -1.565000000
H     6.565000000    -4.512000000    -1.805000000
H     5.684000000    -5.694000000    -2.147000000
O     0.425000000    -3.223000000     3.631000000
H     0.520000000    -3.880000000     2.940000000
H     1.324000000    -2.992000000     3.866000000
O    -3.176000000    -2.497000000     1.717000000
H    -3.404000000    -3.326000000     2.136000000
H    -4.016000000    -2.129000000     1.440000000
O    -4.265000000     4.928000000    -0.010000000
H    -5.137000000     5.170000000     0.303000000
H    -3.667000000     5.461000000     0.514000000
O     3.902000000    -4.476000000     0.901000000
H     3.436000000    -4.714000000     1.702000000
H     3.352000000    -3.807000000     0.494000000
O    -7.486000000     2.603000000     0.313000000
H    -7.226000000     1.829000000    -0.187000000
H    -6.942000000     3.308000000    -0.037000000
O    -3.937000000     0.705000000     2.738000000
H    -4.219000000     0.323000000     3.569000000
H    -3.700000000     1.606000000     2.957000000
O     7.390000000    -3.707000000     3.922000000
H     6.697000000    -3.310000000     3.395000000
H     7.093000000    -3.603000000     4.826000000
O     0.295000000     2.142000000     3.619000000
H    -0.205000000     2.620000000     2.957000000
H    -0.250000000     1.383000000     3.829000000
O    -2.747000000    -0.446000000    -3.830000000
H    -3.253000000    -0.261000000    -3.038000000
H    -2.794000000     0.364000000    -4.338000000
O    -1.834000000    -4.364000000    -0.343000000
H    -2.030000000    -5.098000000     0.238000000
H    -2.080000000    -3.588000000     0.160000000
O     1.003000000    -2.162000000    -4.654000000
H     0.249000000    -2.529000000    -4.193000000
H     1.571000000    -1.831000000    -3.959000000
O    -0.997000000    -0.518000000     3.566000000
H    -0.560000000    -1.314000000     3.265000000
H    -1.675000000    -0.354000000     2.911000000
O     4.849000000     0.516000000     1.510000000
H     4.287000000    -0.195000000     1.204000000
H     4.271000000     1.070000000     2.034000000
O     5.544000000    -2.923000000    -0.927000000
H     4.903000000    -2.562000000    -0.315000000
H     6.014000000    -3.584000000    -0.419000000
O     2.966000000    -1.824000000    -2.856000000
H     3.660000000    -1.211000000    -2.612000000
H     2.839000000    -2.365000000    -2.076000000
O    -6.756000000     1.560000000    -2.903000000
H    -5.978000000     1.814000000    -2.407000000
H    -7.372000000     1.248000000    -2.240000000
