158
-2992.76001
C     0.249000000    -1.410000000    -0.191000000
H     0.283000000    -2.474000000    -0.411000000
C    -1.031000000    -0.818000000    -0.181000000
H    -1.965000000    -1.367000000    -0.268000000
C    -1.112000000     0.522000000    -0.028000000
H    -2.132000000     1.033000000    -0.116000000
C     0.008000000     1.296000000     0.261000000
H    -0.148000000     2.349000000     0.482000000
C     1.293000000     0.676000000     0.246000000
H     2.189000000     1.240000000     0.493000000
C     1.434000000    -0.683000000     0.087000000
C     2.846000000    -1.322000000    -0.039000000
O     2.912000000    -2.522000000    -0.378000000
O     3.809000000    -0.607000000     0.009000000
O    -4.339000000    -3.305000000    -2.673000000
H    -4.629000000    -2.829000000    -1.895000000
H    -3.623000000    -3.859000000    -2.363000000
O    -0.392000000     0.411000000    -3.276000000
H     0.273000000     0.293000000    -2.598000000
H    -0.908000000     1.160000000    -2.978000000
O    -1.945000000    -1.188000000    -4.817000000
H    -1.877000000    -2.123000000    -4.622000000
H    -1.133000000    -0.813000000    -4.478000000
O    -2.085000000    -3.814000000    -4.634000000
H    -2.740000000    -4.471000000    -4.870000000
H    -1.993000000    -3.897000000    -3.685000000
O     3.554000000     2.696000000     2.609000000
H     4.465000000     2.977000000     2.693000000
H     3.506000000     1.886000000     3.116000000
O    -6.702000000     2.411000000     0.070000000
H    -6.777000000     3.138000000     0.688000000
H    -6.722000000     1.627000000     0.618000000
O    -4.621000000    -1.218000000     0.359000000
H    -3.821000000    -1.739000000     0.291000000
H    -4.404000000    -0.525000000     0.982000000
O    -1.468000000     2.600000000    -2.637000000
H    -1.920000000     2.842000000    -1.829000000
H    -0.684000000     3.149000000    -2.647000000
O     0.862000000    -2.017000000     4.076000000
H     1.176000000    -2.490000000     3.306000000
H     0.015000000    -1.660000000     3.810000000
O     2.664000000     2.400000000    -4.710000000
H     2.602000000     1.528000000    -5.100000000
H     2.848000000     2.237000000    -3.785000000
O     1.611000000    -5.681000000    -3.864000000
H     2.525000000    -5.855000000    -4.087000000
H     1.539000000    -5.924000000    -2.941000000
O    -2.780000000     2.964000000     2.797000000
H    -2.038000000     3.536000000     2.989000000
H    -3.521000000     3.376000000     3.241000000
O     3.166000000     1.453000000    -2.124000000
H     3.035000000     0.505000000    -2.123000000
H     3.701000000     1.622000000    -1.348000000
O    -3.996000000     0.604000000     2.405000000
H    -3.755000000     1.474000000     2.724000000
H    -4.937000000     0.542000000     2.567000000
O     6.372000000    -5.677000000    -2.140000000
H     5.861000000    -5.738000000    -1.333000000
H     6.997000000    -4.971000000    -1.975000000
O     6.014000000    -0.555000000     1.360000000
H     5.291000000    -0.808000000     0.786000000
H     5.595000000    -0.338000000     2.192000000
O     8.912000000    -0.783000000     0.974000000
H     8.192000000    -0.232000000     1.282000000
H     8.817000000    -0.791000000     0.022000000
O     3.013000000    -4.091000000     4.759000000
H     2.519000000    -4.169000000     3.943000000
H     2.453000000    -3.565000000     5.329000000
O    -0.593000000    -6.519000000    -0.873000000
H    -1.147000000    -7.021000000    -1.471000000
H    -0.970000000    -6.676000000    -0.007000000
O     5.868000000    -2.204000000    -1.842000000
H     6.788000000    -1.947000000    -1.905000000
H     5.491000000    -1.590000000    -1.211000000
O    -2.271000000     6.323000000     1.001000000
H    -2.672000000     6.166000000     1.856000000
H    -1.604000000     5.641000000     0.920000000
O     4.498000000    -4.852000000     0.138000000
H     4.125000000    -3.989000000    -0.044000000
H     3.769000000    -5.459000000     0.009000000
O    -6.138000000     3.509000000     2.862000000
H    -6.478000000     4.328000000     2.501000000
H    -6.905000000     3.074000000     3.235000000
O    -2.331000000     6.535000000    -2.303000000
H    -1.726000000     5.859000000    -2.000000000
H    -2.678000000     6.925000000    -1.501000000
O    -3.256000000     3.372000000    -5.388000000
H    -3.485000000     4.301000000    -5.407000000
H    -3.110000000     3.180000000    -4.462000000
O    -5.116000000     5.002000000    -1.162000000
H    -5.507000000     5.483000000    -1.892000000
H    -5.685000000     5.196000000    -0.416000000
O     0.121000000     4.761000000    -1.835000000
H     0.356000000     4.680000000    -0.911000000
H     0.847000000     5.247000000    -2.226000000
O    -0.491000000     4.351000000     2.349000000
H     0.302000000     4.142000000     1.856000000
H    -0.206000000     4.993000000     3.000000000
O     1.555000000     4.333000000     0.644000000
H     2.120000000     4.878000000     0.097000000
H     2.160000000     3.848000000     1.205000000
O     5.429000000     4.833000000    -0.556000000
H     5.071000000     4.060000000    -0.120000000
H     4.794000000     5.526000000    -0.375000000
O    -6.378000000    -0.573000000    -3.406000000
H    -5.917000000     0.266000000    -3.412000000
H    -6.383000000    -0.850000000    -4.322000000
O     1.870000000    -3.916000000     2.207000000
H     1.604000000    -4.539000000     1.531000000
H     2.540000000    -3.378000000     1.787000000
O    -3.039000000    -3.586000000     0.535000000
H    -2.630000000    -4.043000000     1.270000000
H    -3.946000000    -3.891000000     0.536000000
O    -3.028000000     3.408000000    -0.351000000
H    -3.672000000     4.107000000    -0.468000000
H    -3.202000000     3.067000000     0.527000000
O     1.769000000    -5.164000000    -0.421000000
H     0.984000000    -5.556000000    -0.803000000
H     1.749000000    -4.253000000    -0.716000000
O     6.384000000     0.578000000    -1.913000000
H     6.140000000     1.197000000    -2.600000000
H     6.345000000     1.089000000    -1.105000000
O    -6.485000000     0.439000000     2.903000000
H    -7.017000000    -0.357000000     2.895000000
H    -7.059000000     1.106000000     3.280000000
O    -0.887000000     0.709000000     3.245000000
H    -1.521000000     1.181000000     2.705000000
H    -0.066000000     0.769000000     2.757000000
O     5.248000000     0.668000000     4.218000000
H     4.495000000     0.263000000     4.648000000
H     5.438000000     1.443000000     4.746000000
O    -6.987000000    -0.844000000    -0.804000000
H    -6.647000000    -0.876000000    -1.698000000
H    -6.224000000    -1.015000000    -0.252000000
O    -5.266000000     2.053000000    -2.691000000
H    -4.320000000     2.037000000    -2.549000000
H    -5.639000000     2.117000000    -1.812000000
O    -1.801000000    -4.094000000    -1.879000000
H    -1.406000000    -4.906000000    -1.562000000
H    -2.118000000    -3.657000000    -1.089000000
O    -1.280000000     1.533000000     5.796000000
H    -1.200000000     1.116000000     4.938000000
H    -1.661000000     0.858000000     6.356000000
O     1.855000000    -3.064000000    -5.020000000
H     1.281000000    -3.823000000    -4.914000000
H     2.320000000    -2.997000000    -4.186000000
O    -3.370000000    -1.943000000     3.501000000
H    -3.571000000    -1.026000000     3.315000000
H    -3.620000000    -2.410000000     2.704000000
O     4.889000000     1.937000000     0.040000000
H     4.719000000     1.040000000     0.329000000
H     5.078000000     2.416000000     0.847000000
O     6.768000000    -3.532000000     1.180000000
H     5.990000000    -3.956000000     0.817000000
H     6.645000000    -2.602000000     0.989000000
O     3.338000000    -3.119000000    -2.849000000
H     3.042000000    -2.832000000    -1.985000000
H     4.291000000    -3.164000000    -2.773000000
