158
-3042.68718
C     0.844000000    -0.500000000    -1.175000000
H     1.447000000    -0.811000000    -2.024000000
C     0.793000000     0.828000000    -0.684000000
H     1.317000000     1.576000000    -1.273000000
C     0.017000000     1.143000000     0.424000000
H    -0.089000000     2.175000000     0.697000000
C    -0.767000000     0.179000000     1.056000000
H    -1.368000000     0.317000000     1.951000000
C    -0.697000000    -1.134000000     0.539000000
H    -1.243000000    -1.870000000     1.123000000
C     0.031000000    -1.483000000    -0.626000000
C     0.010000000    -2.859000000    -1.145000000
O    -0.597000000    -3.761000000    -0.610000000
O     0.587000000    -3.069000000    -2.205000000
O     4.689000000     5.209000000     0.233000000
H     3.762000000     5.032000000     0.073000000
H     4.928000000     5.853000000    -0.434000000
O    -1.857000000    -7.261000000     1.039000000
H    -1.916000000    -6.454000000     1.550000000
H    -1.072000000    -7.147000000     0.502000000
O    -4.561000000    -4.790000000    -3.996000000
H    -3.684000000    -4.822000000    -3.614000000
H    -5.004000000    -4.088000000    -3.519000000
O    -1.397000000    -7.573000000    -2.694000000
H    -2.181000000    -8.086000000    -2.890000000
H    -1.732000000    -6.748000000    -2.342000000
O     2.918000000     2.844000000     0.691000000
H     3.144000000     2.232000000    -0.009000000
H     2.481000000     3.568000000     0.244000000
O    -5.418000000     0.213000000    -0.718000000
H    -4.589000000    -0.096000000    -1.085000000
H    -6.089000000    -0.238000000    -1.232000000
O     2.509000000    -4.595000000    -3.119000000
H     1.814000000    -4.020000000    -2.797000000
H     2.544000000    -4.425000000    -4.060000000
O    -4.527000000    -5.690000000     2.510000000
H    -3.677000000    -5.383000000     2.194000000
H    -4.927000000    -4.918000000     2.909000000
O     4.300000000     1.625000000     2.694000000
H     5.144000000     1.296000000     2.385000000
H     3.766000000     1.695000000     1.903000000
O     2.338000000    -1.662000000     1.753000000
H     1.883000000    -0.828000000     1.632000000
H     1.636000000    -2.309000000     1.827000000
O    -0.655000000    -3.072000000    -6.427000000
H    -0.596000000    -3.439000000    -5.545000000
H    -0.715000000    -2.127000000    -6.290000000
O    -1.365000000     4.675000000    -2.711000000
H    -2.008000000     3.969000000    -2.653000000
H    -1.329000000     5.039000000    -1.826000000
O    -0.392000000     0.379000000    -5.991000000
H    -0.776000000     1.012000000    -6.598000000
H    -1.106000000     0.154000000    -5.395000000
O    -3.388000000     0.933000000     4.245000000
H    -2.455000000     1.090000000     4.394000000
H    -3.511000000     0.006000000     4.453000000
O    -6.291000000    -0.402000000     1.822000000
H    -7.032000000     0.178000000     1.644000000
H    -5.687000000    -0.249000000     1.096000000
O     4.101000000     5.013000000    -3.808000000
H     3.781000000     5.745000000    -4.336000000
H     3.313000000     4.640000000    -3.414000000
O    -2.098000000    -4.539000000     1.671000000
H    -1.812000000    -3.992000000     2.403000000
H    -1.363000000    -4.523000000     1.058000000
O    -4.843000000     6.550000000     1.287000000
H    -4.462000000     6.914000000     0.489000000
H    -4.303000000     5.784000000     1.483000000
O    -2.700000000    -1.556000000    -4.378000000
H    -2.156000000    -2.331000000    -4.237000000
H    -2.565000000    -1.024000000    -3.594000000
O    -1.276000000     5.525000000    -0.034000000
H    -1.969000000     5.110000000     0.479000000
H    -0.966000000     6.243000000     0.519000000
O    -4.735000000     2.721000000     2.828000000
H    -4.847000000     2.316000000     1.968000000
H    -4.428000000     2.009000000     3.389000000
O    -3.741000000    -1.733000000     5.123000000
H    -4.212000000    -2.253000000     4.472000000
H    -4.231000000    -1.863000000     5.935000000
O     0.548000000     7.780000000    -1.163000000
H     0.884000000     8.671000000    -1.068000000
H     0.996000000     7.281000000    -0.480000000
O    -1.003000000    -3.414000000     3.959000000
H    -0.977000000    -4.110000000     4.616000000
H    -1.494000000    -2.707000000     4.378000000
O     1.349000000    -4.110000000     2.782000000
H     2.036000000    -4.573000000     3.261000000
H     0.605000000    -4.096000000     3.384000000
O     4.155000000     1.238000000    -1.309000000
H     4.319000000     0.773000000    -2.129000000
H     4.933000000     1.781000000    -1.182000000
O    -2.676000000    -0.109000000    -1.720000000
H    -1.952000000    -0.413000000    -1.173000000
H    -2.678000000     0.842000000    -1.609000000
O    -2.909000000     4.516000000     2.073000000
H    -2.247000000     4.646000000     2.752000000
H    -3.523000000     3.888000000     2.455000000
O     1.582000000     1.285000000    -4.069000000
H     0.969000000     0.973000000    -4.735000000
H     2.179000000     0.550000000    -3.929000000
O     4.008000000     1.071000000     5.383000000
H     3.294000000     0.441000000     5.287000000
H     4.064000000     1.501000000     4.530000000
O     2.755000000    -7.109000000    -2.203000000
H     2.188000000    -6.621000000    -1.606000000
H     2.817000000    -6.556000000    -2.982000000
O    -3.190000000     2.949000000    -1.745000000
H    -3.698000000     3.021000000    -0.938000000
H    -3.843000000     2.782000000    -2.425000000
O     1.736000000     3.963000000    -3.238000000
H     1.613000000     3.030000000    -3.415000000
H     1.161000000     4.403000000    -3.863000000
O     5.027000000    -4.215000000    -0.799000000
H     4.722000000    -3.312000000    -0.715000000
H     4.692000000    -4.503000000    -1.649000000
O     3.201000000    -3.984000000    -5.658000000
H     3.043000000    -4.867000000    -5.990000000
H     3.611000000    -3.522000000    -6.389000000
O    -5.343000000     2.801000000     0.007000000
H    -6.004000000     3.414000000    -0.316000000
H    -5.674000000     1.938000000    -0.243000000
O     4.772000000     4.399000000     2.854000000
H     4.368000000     3.535000000     2.939000000
H     4.768000000     4.574000000     1.913000000
O     0.956000000    -5.785000000     0.435000000
H     1.124000000    -5.285000000     1.234000000
H     0.519000000    -5.164000000    -0.148000000
O     3.761000000    -1.856000000    -0.461000000
H     3.151000000    -1.909000000     0.276000000
H     3.807000000    -0.923000000    -0.667000000
O     1.726000000    -1.931000000    -4.600000000
H     1.267000000    -2.192000000    -3.802000000
H     1.907000000    -2.754000000    -5.053000000
O    -2.498000000    -5.217000000    -1.669000000
H    -3.211000000    -5.365000000    -1.048000000
H    -1.887000000    -4.647000000    -1.200000000
O     4.020000000    -0.513000000    -3.336000000
H     3.535000000    -1.338000000    -3.298000000
H     4.349000000    -0.469000000    -4.234000000
O    -0.574000000     0.568000000     5.276000000
H    -0.222000000     1.329000000     4.814000000
H     0.186000000     0.003000000     5.420000000
O     1.546000000     5.062000000    -0.682000000
H     1.409000000     4.721000000    -1.565000000
H     0.673000000     5.070000000    -0.290000000
O    -0.510000000     7.105000000     2.023000000
H     0.000000000     7.434000000     2.764000000
H    -0.749000000     7.890000000     1.529000000
O    -1.141000000    -3.882000000    -3.897000000
H    -1.659000000    -4.431000000    -3.309000000
H    -0.455000000    -3.514000000    -3.339000000
O     6.704000000    -0.730000000    -2.508000000
H     7.156000000    -1.548000000    -2.300000000
H     5.787000000    -0.982000000    -2.611000000
O    -1.317000000     5.358000000     4.103000000
H    -1.299000000     5.576000000     5.035000000
H    -0.595000000     5.860000000     3.726000000
