158
-3046.20510
C     0.314000000    -0.050000000    -1.491000000
H     0.279000000     0.020000000    -2.575000000
C    -0.977000000    -0.171000000    -0.880000000
H    -1.900000000    -0.184000000    -1.454000000
C    -1.145000000    -0.218000000     0.481000000
H    -2.149000000    -0.316000000     1.003000000
C    -0.012000000    -0.320000000     1.283000000
H    -0.186000000    -0.292000000     2.355000000
C     1.263000000    -0.258000000     0.750000000
H     2.094000000    -0.080000000     1.427000000
C     1.476000000    -0.093000000    -0.660000000
C     2.787000000     0.162000000    -1.336000000
O     3.053000000    -0.213000000    -2.466000000
O     3.692000000     0.675000000    -0.691000000
O     5.491000000    -1.614000000    -1.910000000
H     6.062000000    -0.852000000    -2.002000000
H     4.605000000    -1.261000000    -1.999000000
O     2.871000000    -4.856000000    -3.152000000
H     3.160000000    -5.518000000    -3.780000000
H     3.351000000    -5.060000000    -2.350000000
O    -0.413000000     3.007000000    -2.450000000
H     0.445000000     2.756000000    -2.791000000
H    -0.331000000     2.913000000    -1.501000000
O     2.927000000     4.675000000    -2.813000000
H     2.266000000     4.997000000    -3.427000000
H     3.360000000     3.961000000    -3.281000000
O     2.648000000     0.075000000     5.501000000
H     3.279000000    -0.222000000     4.844000000
H     1.904000000     0.395000000     4.991000000
O     6.989000000    -3.688000000    -2.256000000
H     6.435000000    -4.380000000    -1.895000000
H     6.420000000    -2.918000000    -2.288000000
O    -2.686000000    -0.834000000    -3.994000000
H    -1.954000000    -0.835000000    -4.610000000
H    -2.503000000    -1.563000000    -3.402000000
O    -2.986000000     1.765000000    -2.769000000
H    -2.163000000     2.244000000    -2.860000000
H    -2.826000000     0.928000000    -3.205000000
O    -3.294000000     2.624000000     4.531000000
H    -2.421000000     2.746000000     4.905000000
H    -3.266000000     3.095000000     3.698000000
O     0.698000000     1.818000000    -5.567000000
H     0.448000000     0.962000000    -5.915000000
H    -0.053000000     2.381000000    -5.753000000
O    -5.791000000     2.040000000     5.470000000
H    -6.357000000     2.540000000     4.882000000
H    -4.908000000     2.177000000     5.126000000
O    -3.275000000     3.962000000     2.024000000
H    -3.524000000     3.706000000     1.136000000
H    -2.318000000     3.959000000     2.014000000
O     6.066000000     2.493000000    -4.207000000
H     5.159000000     2.187000000    -4.247000000
H     6.098000000     3.228000000    -4.819000000
O     3.205000000     1.964000000    -4.138000000
H     3.091000000     1.301000000    -3.458000000
H     2.438000000     1.862000000    -4.703000000
O     0.952000000    -2.987000000    -3.619000000
H     0.189000000    -3.530000000    -3.814000000
H     1.594000000    -3.598000000    -3.256000000
O    -3.968000000    -1.964000000     4.365000000
H    -3.665000000    -1.330000000     5.014000000
H    -3.472000000    -2.760000000     4.558000000
O     1.548000000     3.759000000    -0.346000000
H     1.853000000     4.319000000    -1.060000000
H     2.317000000     3.643000000     0.213000000
O     4.887000000    -2.895000000     0.349000000
H     4.020000000    -3.018000000    -0.038000000
H     5.459000000    -2.713000000    -0.397000000
O     2.718000000    -3.096000000    -6.925000000
H     3.225000000    -2.631000000    -7.591000000
H     2.906000000    -2.627000000    -6.111000000
O     8.995000000    -0.528000000    -1.803000000
H     8.749000000    -0.894000000    -2.653000000
H     8.425000000     0.234000000    -1.697000000
O     7.674000000     1.769000000     0.923000000
H     8.191000000     1.764000000     0.118000000
H     7.126000000     0.986000000     0.861000000
O    -0.648000000    -3.153000000    -0.569000000
H    -1.485000000    -3.303000000    -1.007000000
H    -0.575000000    -2.200000000    -0.513000000
O     6.402000000     0.939000000    -1.859000000
H     6.548000000     1.661000000    -2.470000000
H     5.490000000     1.037000000    -1.586000000
O     5.607000000     0.280000000     3.661000000
H     5.779000000     0.059000000     2.745000000
H     5.758000000     1.224000000     3.712000000
O    -7.890000000    -0.439000000    -2.222000000
H    -7.750000000    -0.390000000    -1.277000000
H    -7.244000000     0.163000000    -2.592000000
O     7.851000000     4.271000000    -1.566000000
H     7.961000000     5.099000000    -2.034000000
H     6.910000000     4.212000000    -1.403000000
O    -4.749000000     0.795000000    -4.798000000
H    -5.053000000     1.045000000    -3.925000000
H    -4.022000000     0.194000000    -4.636000000
O    -0.407000000     2.782000000     1.894000000
H     0.518000000     2.835000000     1.652000000
H    -0.761000000     2.090000000     1.337000000
O     0.409000000     1.356000000     4.239000000
H     0.557000000     2.301000000     4.216000000
H    -0.430000000     1.234000000     3.795000000
O     2.097000000    -2.964000000     3.035000000
H     1.747000000    -2.662000000     2.196000000
H     2.957000000    -2.548000000     3.099000000
O     3.609000000     3.979000000     3.413000000
H     2.697000000     3.955000000     3.702000000
H     3.560000000     3.911000000     2.459000000
O     2.959000000    -1.434000000    -4.801000000
H     3.090000000    -0.953000000    -3.984000000
H     2.243000000    -2.040000000    -4.610000000
O     1.879000000    -2.641000000     6.177000000
H     1.665000000    -1.769000000     5.845000000
H     2.068000000    -3.156000000     5.393000000
O     2.386000000    -3.438000000    -0.474000000
H     1.602000000    -3.125000000    -0.926000000
H     2.196000000    -4.354000000    -0.270000000
O    -5.549000000     4.994000000     3.094000000
H    -5.051000000     5.704000000     3.501000000
H    -4.897000000     4.496000000     2.601000000
O    -7.209000000    -0.361000000     0.435000000
H    -7.886000000    -0.333000000     1.111000000
H    -6.436000000    -0.702000000     0.885000000
O    -2.726000000    -3.242000000    -2.416000000
H    -2.334000000    -3.758000000    -3.121000000
H    -3.668000000    -3.286000000    -2.582000000
O     3.956000000     2.868000000     0.869000000
H     3.969000000     2.127000000     0.263000000
H     4.738000000     3.372000000     0.646000000
O    -0.303000000    -4.998000000     1.550000000
H    -0.318000000    -4.460000000     0.758000000
H    -0.136000000    -4.376000000     2.258000000
O     5.162000000    -2.802000000     3.089000000
H     6.049000000    -2.441000000     3.090000000
H     5.000000000    -3.036000000     2.175000000
O    -6.097000000     1.775000000    -2.711000000
H    -6.111000000     1.983000000    -1.777000000
H    -6.489000000     2.540000000    -3.133000000
O     5.132000000     4.850000000    -1.330000000
H     4.355000000     4.775000000    -1.884000000
H     4.907000000     5.526000000    -0.691000000
O     5.673000000    -1.693000000    -6.034000000
H     6.433000000    -1.354000000    -5.561000000
H     4.974000000    -1.714000000    -5.381000000
O    -5.309000000    -1.884000000     1.808000000
H    -4.866000000    -1.851000000     2.656000000
H    -5.244000000    -2.800000000     1.539000000
O    -0.663000000    -1.195000000    -5.705000000
H    -0.769000000    -1.241000000    -6.655000000
H    -0.018000000    -1.872000000    -5.503000000
O    -6.319000000     2.339000000     0.170000000
H    -6.581000000     1.494000000     0.535000000
H    -7.144000000     2.794000000     0.001000000
O    -3.896000000     3.304000000    -0.381000000
H    -4.773000000     3.022000000    -0.120000000
H    -3.611000000     2.644000000    -1.014000000
O     5.443000000    -0.476000000     1.136000000
H     5.294000000    -1.419000000     1.072000000
H     4.741000000    -0.087000000     0.613000000
