158
-3018.86322
C     0.154000000    -0.706000000    -1.318000000
H     0.385000000    -1.068000000    -2.316000000
C    -0.904000000     0.104000000    -0.971000000
H    -1.633000000     0.277000000    -1.758000000
C    -1.030000000     0.608000000     0.368000000
H    -1.899000000     1.225000000     0.708000000
C     0.031000000     0.393000000     1.291000000
H    -0.110000000     0.709000000     2.322000000
C     1.112000000    -0.307000000     0.824000000
H     1.932000000    -0.492000000     1.512000000
C     1.171000000    -0.910000000    -0.406000000
C     2.481000000    -1.675000000    -0.873000000
O     2.527000000    -2.141000000    -1.992000000
O     3.359000000    -1.973000000    -0.084000000
O     3.248000000    -4.546000000    -2.336000000
H     2.812000000    -3.699000000    -2.239000000
H     4.028000000    -4.479000000    -1.785000000
O    -1.424000000    -4.483000000    -2.858000000
H    -2.016000000    -3.822000000    -2.501000000
H    -1.458000000    -5.201000000    -2.227000000
O     1.334000000     2.420000000    -1.096000000
H     0.664000000     1.748000000    -0.977000000
H     1.771000000     2.477000000    -0.246000000
O     1.986000000     2.819000000    -3.725000000
H     2.914000000     2.602000000    -3.632000000
H     1.651000000     2.829000000    -2.828000000
O     4.458000000    -0.607000000     4.537000000
H     5.396000000    -0.644000000     4.722000000
H     4.349000000     0.182000000     4.006000000
O     5.415000000    -4.484000000    -0.824000000
H     5.931000000    -3.856000000    -1.331000000
H     5.999000000    -4.759000000    -0.118000000
O    -1.217000000    -1.629000000    -5.926000000
H    -1.925000000    -2.268000000    -6.008000000
H    -0.698000000    -1.940000000    -5.184000000
O     0.332000000     0.503000000    -5.958000000
H     0.978000000     0.358000000    -5.267000000
H    -0.051000000    -0.360000000    -6.113000000
O    -5.078000000     2.480000000     1.694000000
H    -5.558000000     1.655000000     1.759000000
H    -4.531000000     2.378000000     0.915000000
O    -4.161000000     2.723000000     5.199000000
H    -3.915000000     2.327000000     4.363000000
H    -4.017000000     2.031000000     5.844000000
O    -1.555000000     4.218000000     1.951000000
H    -1.176000000     3.363000000     1.746000000
H    -0.843000000     4.839000000     1.794000000
O     1.432000000    -0.242000000     5.845000000
H     1.681000000    -0.969000000     5.275000000
H     2.264000000     0.099000000     6.176000000
O    -1.097000000     2.818000000    -5.776000000
H    -0.546000000     2.036000000    -5.765000000
H    -0.583000000     3.481000000    -5.315000000
O     4.041000000    -6.302000000     1.230000000
H     3.679000000    -5.417000000     1.183000000
H     4.989000000    -6.173000000     1.260000000
O     2.482000000    -0.375000000    -4.337000000
H     2.383000000    -0.790000000    -3.480000000
H     3.043000000     0.382000000    -4.173000000
O     0.542000000    -2.879000000    -4.171000000
H    -0.096000000    -3.449000000    -3.741000000
H     1.160000000    -2.646000000    -3.478000000
O    -5.501000000    -0.086000000     0.568000000
H    -5.684000000    -0.847000000     1.119000000
H    -5.560000000    -0.419000000    -0.327000000
O     2.689000000     2.555000000     1.109000000
H     3.061000000     3.436000000     1.160000000
H     2.482000000     2.330000000     2.016000000
O     3.522000000    -3.823000000     2.012000000
H     3.266000000    -3.380000000     1.203000000
H     4.403000000    -3.497000000     2.195000000
O     5.889000000     1.648000000     2.899000000
H     5.392000000     1.281000000     2.168000000
H     6.740000000     1.872000000     2.522000000
O     3.882000000    -4.325000000    -5.533000000
H     3.760000000    -4.422000000    -4.589000000
H     3.446000000    -3.501000000    -5.748000000
O     1.326000000    -5.711000000    -5.733000000
H     2.270000000    -5.823000000    -5.621000000
H     1.025000000    -5.359000000    -4.896000000
O     0.772000000    -6.182000000    -0.366000000
H     1.440000000    -5.743000000    -0.894000000
H     0.684000000    -5.633000000     0.413000000
O     5.910000000    -2.445000000     2.516000000
H     6.229000000    -3.021000000     3.211000000
H     6.455000000    -2.657000000     1.759000000
O     8.129000000    -1.287000000    -0.908000000
H     8.786000000    -1.463000000    -1.581000000
H     7.295000000    -1.301000000    -1.378000000
O    -1.962000000    -0.074000000     4.347000000
H    -2.577000000     0.095000000     5.060000000
H    -1.367000000     0.675000000     4.361000000
O    -4.807000000    -0.704000000    -2.180000000
H    -4.569000000     0.220000000    -2.113000000
H    -5.102000000    -0.811000000    -3.085000000
O     3.671000000    -7.334000000    -2.428000000
H     3.435000000    -6.442000000    -2.174000000
H     4.620000000    -7.305000000    -2.550000000
O    -4.577000000     5.609000000    -1.895000000
H    -5.399000000     5.626000000    -2.385000000
H    -4.688000000     6.276000000    -1.218000000
O     0.697000000     5.543000000     2.033000000
H     1.415000000     5.518000000     2.665000000
H     0.941000000     6.238000000     1.421000000
O    -0.636000000     2.490000000     4.240000000
H     0.316000000     2.470000000     4.338000000
H    -0.813000000     3.319000000     3.795000000
O     1.402000000     5.427000000    -1.481000000
H     0.979000000     4.598000000    -1.260000000
H     0.883000000     6.091000000    -1.027000000
O     2.225000000     1.804000000     3.983000000
H     3.021000000     2.185000000     4.352000000
H     1.874000000     1.255000000     4.684000000
O     5.525000000    -1.023000000    -2.210000000
H     4.858000000    -1.315000000    -1.588000000
H     5.455000000    -0.068000000    -2.205000000
O     2.634000000    -2.684000000     4.230000000
H     3.314000000    -2.011000000     4.205000000
H     2.982000000    -3.397000000     3.695000000
O    -5.045000000    -0.114000000    -5.334000000
H    -4.447000000     0.618000000    -5.179000000
H    -5.901000000     0.298000000    -5.451000000
O    -1.446000000    -1.952000000     2.358000000
H    -1.452000000    -1.304000000     3.062000000
H    -1.284000000    -1.441000000     1.564000000
O     0.454000000    -4.457000000     1.759000000
H     1.205000000    -3.971000000     2.100000000
H    -0.262000000    -3.822000000     1.760000000
O    -4.044000000     5.023000000     2.831000000
H    -3.175000000     4.759000000     2.530000000
H    -4.620000000     4.309000000     2.559000000
O    -3.828000000    -3.271000000    -2.277000000
H    -3.854000000    -2.317000000    -2.202000000
H    -4.563000000    -3.574000000    -1.743000000
O     6.088000000     1.765000000    -1.015000000
H     5.903000000     1.087000000    -0.365000000
H     5.241000000     2.181000000    -1.175000000
O     7.024000000    -3.192000000    -3.015000000
H     7.096000000    -3.433000000    -3.938000000
H     6.508000000    -2.386000000    -3.017000000
O    -2.319000000     5.139000000     5.946000000
H    -1.492000000     5.426000000     5.560000000
H    -2.523000000     4.321000000     5.494000000
O    -3.503000000     1.887000000    -4.992000000
H    -3.819000000     2.370000000    -4.229000000
H    -2.608000000     2.202000000    -5.121000000
O    -4.408000000     2.004000000    -2.035000000
H    -5.315000000     2.305000000    -1.979000000
H    -3.980000000     2.388000000    -1.270000000
O    -3.432000000     3.724000000    -0.244000000
H    -3.570000000     4.441000000    -0.863000000
H    -3.060000000     4.145000000     0.531000000
O     2.712000000    -2.195000000    -6.257000000
H     2.432000000    -1.615000000    -5.549000000
H     1.934000000    -2.294000000    -6.807000000
O     5.257000000    -0.338000000     0.944000000
H     4.592000000    -0.916000000     0.568000000
H     5.582000000    -0.813000000     1.709000000
