158
-3029.65573
C    -0.244000000    -0.082000000    -1.462000000
H    -0.433000000    -0.128000000    -2.531000000
C    -1.170000000    -0.412000000    -0.500000000
H    -2.145000000    -0.846000000    -0.708000000
C    -0.844000000    -0.277000000     0.848000000
H    -1.505000000    -0.635000000     1.656000000
C     0.378000000     0.258000000     1.180000000
H     0.630000000     0.298000000     2.237000000
C     1.288000000     0.728000000     0.242000000
H     2.287000000     1.007000000     0.568000000
C     0.986000000     0.536000000    -1.122000000
C     1.974000000     0.981000000    -2.204000000
O     1.662000000     0.956000000    -3.312000000
O     3.146000000     0.963000000    -1.862000000
O    -6.118000000     1.567000000     3.054000000
H    -6.844000000     1.388000000     3.652000000
H    -5.362000000     1.698000000     3.626000000
O     5.761000000    -0.390000000    -2.705000000
H     6.258000000     0.360000000    -2.380000000
H     4.873000000    -0.054000000    -2.827000000
O     5.609000000    -3.468000000     0.142000000
H     5.885000000    -3.490000000    -0.774000000
H     4.932000000    -2.793000000     0.173000000
O     5.143000000     1.172000000    -0.199000000
H     4.474000000     1.043000000    -0.871000000
H     4.841000000     0.647000000     0.543000000
O     1.243000000    -2.491000000    -0.049000000
H     2.100000000    -2.324000000    -0.443000000
H     0.802000000    -1.641000000    -0.068000000
O    -4.877000000     1.935000000    -0.222000000
H    -5.774000000     1.683000000    -0.442000000
H    -4.865000000     1.967000000     0.734000000
O    -3.934000000     2.151000000     4.555000000
H    -3.988000000     2.856000000     5.199000000
H    -3.050000000     2.223000000     4.194000000
O    -0.897000000     3.327000000     0.556000000
H    -0.532000000     2.444000000     0.505000000
H    -0.328000000     3.854000000    -0.005000000
O     0.868000000     4.895000000    -0.902000000
H     1.641000000     4.351000000    -1.054000000
H     1.114000000     5.759000000    -1.234000000
O     0.101000000    -4.612000000     5.861000000
H     1.058000000    -4.615000000     5.890000000
H    -0.142000000    -5.538000000     5.885000000
O     6.854000000     1.059000000     2.164000000
H     5.920000000     1.117000000     1.962000000
H     6.964000000     0.184000000     2.535000000
O    -0.260000000     0.005000000    -7.421000000
H     0.173000000    -0.773000000    -7.069000000
H    -0.283000000     0.619000000    -6.687000000
O     7.458000000    -0.602000000    -0.157000000
H     7.484000000    -1.018000000     0.704000000
H     6.904000000     0.168000000    -0.035000000
O    -0.151000000     1.665000000    -5.228000000
H    -0.592000000     2.229000000    -4.593000000
H     0.501000000     1.189000000    -4.713000000
O     0.148000000    -0.002000000     6.009000000
H    -0.498000000     0.377000000     5.413000000
H     0.354000000    -0.856000000     5.629000000
O    -6.121000000    -3.586000000    -0.063000000
H    -6.617000000    -3.989000000    -0.776000000
H    -6.359000000    -4.095000000     0.712000000
O     5.829000000    -3.151000000    -2.731000000
H     6.092000000    -2.254000000    -2.938000000
H     5.449000000    -3.482000000    -3.544000000
O    -5.003000000    -1.038000000    -2.959000000
H    -4.506000000    -1.287000000    -3.738000000
H    -4.892000000    -0.090000000    -2.896000000
O     3.947000000     4.836000000    -4.121000000
H     4.275000000     4.665000000    -3.238000000
H     4.528000000     5.515000000    -4.465000000
O    -0.133000000    -4.821000000    -0.317000000
H     0.472000000    -5.511000000    -0.044000000
H     0.416000000    -4.041000000    -0.400000000
O    -1.531000000     2.543000000     3.416000000
H    -0.606000000     2.589000000     3.658000000
H    -1.533000000     2.615000000     2.462000000
O     3.777000000    -1.488000000    -0.589000000
H     4.601000000    -1.599000000    -1.064000000
H     3.422000000    -0.662000000    -0.915000000
O    -4.960000000     0.553000000     6.783000000
H    -5.903000000     0.573000000     6.944000000
H    -4.837000000     1.106000000     6.012000000
O    -5.300000000    -5.964000000     1.821000000
H    -5.603000000    -6.422000000     2.605000000
H    -4.557000000    -5.441000000     2.122000000
O     3.915000000     1.727000000    -4.575000000
H     3.765000000     2.478000000    -4.000000000
H     3.268000000     1.079000000    -4.295000000
O    -3.754000000    -1.396000000     2.300000000
H    -4.296000000    -1.396000000     1.511000000
H    -3.810000000    -0.499000000     2.629000000
O     3.434000000     3.508000000    -1.534000000
H     4.388000000     3.471000000    -1.607000000
H     3.139000000     2.640000000    -1.809000000
O    -2.453000000    -2.930000000    -3.241000000
H    -2.559000000    -2.015000000    -3.500000000
H    -1.506000000    -3.070000000    -3.237000000
O    -0.731000000     3.342000000    -3.158000000
H     0.077000000     3.636000000    -2.738000000
H    -1.271000000     4.130000000    -3.217000000
O     2.864000000     0.250000000     6.035000000
H     1.928000000     0.157000000     5.860000000
H     2.907000000     0.724000000     6.866000000
O    -2.311000000    -6.320000000     0.170000000
H    -1.959000000    -5.453000000    -0.032000000
H    -3.081000000    -6.402000000    -0.393000000
O     6.165000000     4.242000000    -2.393000000
H     6.390000000     5.169000000    -2.309000000
H     7.009000000     3.791000000    -2.402000000
O     1.598000000     3.173000000    -6.829000000
H     1.902000000     3.869000000    -6.246000000
H     1.109000000     2.580000000    -6.259000000
O     2.825000000    -2.419000000     2.495000000
H     2.389000000    -2.640000000     3.318000000
H     2.260000000    -2.790000000     1.817000000
O    -4.632000000    -2.767000000     4.799000000
H    -4.055000000    -2.293000000     4.201000000
H    -4.082000000    -3.460000000     5.164000000
O     0.285000000    -2.367000000    -5.751000000
H     1.209000000    -2.419000000    -5.998000000
H    -0.115000000    -3.135000000    -6.159000000
O     6.539000000    -0.375000000    -5.285000000
H     6.258000000     0.501000000    -5.552000000
H     6.124000000    -0.510000000    -4.433000000
O     1.129000000     2.407000000     4.269000000
H     0.986000000     3.112000000     4.902000000
H     1.995000000     2.585000000     3.904000000
O    -5.793000000    -1.031000000     0.037000000
H    -6.036000000    -1.932000000     0.250000000
H    -5.604000000    -1.049000000    -0.901000000
O    -2.877000000    -4.566000000     5.176000000
H    -2.666000000    -4.903000000     4.305000000
H    -2.026000000    -4.422000000     5.590000000
O     4.366000000    -0.201000000     2.238000000
H     4.456000000     0.148000000     3.125000000
H     3.769000000    -0.943000000     2.331000000
O     0.514000000    -3.292000000    -3.072000000
H     1.343000000    -3.685000000    -2.800000000
H     0.680000000    -2.968000000    -3.957000000
O     0.324000000    -2.424000000     4.309000000
H    -0.205000000    -2.736000000     3.575000000
H     0.304000000    -3.143000000     4.941000000
O     4.176000000     5.145000000     0.648000000
H     3.974000000     4.769000000     1.505000000
H     3.946000000     4.456000000     0.024000000
O     5.636000000     2.032000000    -6.640000000
H     5.033000000     2.132000000    -5.903000000
H     5.066000000     1.920000000    -7.401000000
O    -3.399000000    -3.680000000    -0.739000000
H    -4.281000000    -3.310000000    -0.698000000
H    -3.140000000    -3.583000000    -1.655000000
O    -1.717000000    -3.417000000     2.104000000
H    -1.466000000    -3.484000000     1.183000000
H    -2.507000000    -2.876000000     2.098000000
O    -3.220000000    -0.810000000    -4.985000000
H    -3.969000000    -0.815000000    -5.582000000
H    -2.775000000     0.017000000    -5.167000000
