158
-3008.70327
C    -0.972000000     0.582000000    -0.895000000
H    -1.846000000     0.910000000    -1.453000000
C    -1.263000000    -0.316000000     0.210000000
H    -2.267000000    -0.600000000     0.515000000
C    -0.170000000    -0.758000000     0.935000000
H    -0.420000000    -1.289000000     1.835000000
C     1.060000000    -0.342000000     0.656000000
H     1.892000000    -0.660000000     1.279000000
C     1.312000000     0.411000000    -0.489000000
H     2.319000000     0.718000000    -0.761000000
C     0.270000000     1.011000000    -1.188000000
C     0.415000000     1.914000000    -2.324000000
O    -0.443000000     2.056000000    -3.134000000
O     1.521000000     2.327000000    -2.701000000
O    -5.730000000     0.167000000     2.832000000
H    -6.212000000     0.993000000     2.804000000
H    -5.400000000     0.112000000     3.729000000
O    -3.902000000     4.448000000    -4.531000000
H    -3.011000000     4.098000000    -4.551000000
H    -3.878000000     5.197000000    -5.127000000
O    -4.751000000     4.933000000     0.020000000
H    -5.080000000     5.010000000    -0.875000000
H    -4.956000000     4.033000000     0.275000000
O    -3.470000000     2.600000000     1.564000000
H    -2.655000000     2.331000000     1.141000000
H    -3.397000000     2.269000000     2.459000000
O     3.330000000     0.650000000    -4.238000000
H     4.066000000     1.188000000    -3.947000000
H     2.590000000     0.950000000    -3.710000000
O     4.959000000    -3.748000000    -2.258000000
H     4.387000000    -3.047000000    -2.571000000
H     4.393000000    -4.292000000    -1.710000000
O     5.678000000    -0.610000000    -1.436000000
H     4.810000000    -0.572000000    -1.839000000
H     5.749000000    -1.506000000    -1.106000000
O    -1.059000000    -4.533000000     0.211000000
H    -1.923000000    -4.151000000     0.051000000
H    -0.503000000    -4.162000000    -0.475000000
O    -3.737000000    -0.892000000     4.595000000
H    -3.844000000    -1.636000000     4.002000000
H    -2.978000000    -0.420000000     4.252000000
O     0.737000000     6.529000000    -3.774000000
H     1.073000000     7.388000000    -4.028000000
H     1.493000000     5.946000000    -3.843000000
O    -0.677000000     2.644000000     1.524000000
H    -0.342000000     1.747000000     1.545000000
H    -0.440000000     3.008000000     2.377000000
O     0.788000000     4.922000000    -1.014000000
H     1.474000000     4.859000000    -1.679000000
H     0.095000000     4.342000000    -1.330000000
O    -0.123000000    -6.049000000     4.416000000
H     0.653000000    -5.877000000     4.951000000
H    -0.249000000    -6.996000000     4.475000000
O     1.762000000    -0.337000000    -6.879000000
H     2.582000000    -0.510000000    -6.416000000
H     1.238000000     0.169000000    -6.259000000
O     6.323000000     0.158000000     2.816000000
H     5.485000000    -0.082000000     3.211000000
H     6.898000000    -0.584000000     3.004000000
O    -0.887000000    -1.126000000    -3.696000000
H    -0.399000000    -0.641000000    -4.362000000
H    -1.778000000    -0.781000000    -3.754000000
O    -0.057000000     5.591000000    -6.806000000
H    -0.069000000     4.972000000    -6.076000000
H     0.660000000     6.190000000    -6.600000000
O    -2.971000000     0.809000000    -3.759000000
H    -3.508000000     1.114000000    -4.491000000
H    -2.381000000     1.540000000    -3.575000000
O     3.417000000    -1.327000000     3.998000000
H     3.373000000    -0.414000000     4.281000000
H     2.502000000    -1.593000000     3.903000000
O    -0.730000000    -1.373000000     6.312000000
H    -1.312000000    -1.765000000     6.963000000
H    -0.106000000    -0.861000000     6.826000000
O     3.292000000    -2.244000000    -3.877000000
H     2.754000000    -2.909000000    -4.307000000
H     2.812000000    -1.426000000    -4.008000000
O    -5.162000000    -2.600000000    -3.746000000
H    -6.083000000    -2.423000000    -3.556000000
H    -4.681000000    -1.984000000    -3.193000000
O     4.350000000     4.869000000    -1.178000000
H     4.681000000     5.708000000    -1.498000000
H     4.571000000     4.863000000    -0.247000000
O    -2.041000000     1.740000000     4.273000000
H    -1.149000000     1.697000000     4.619000000
H    -2.530000000     2.234000000     4.932000000
O    -0.045000000    -2.593000000    -1.391000000
H    -0.223000000    -2.020000000    -2.136000000
H     0.053000000    -1.997000000    -0.648000000
O    -1.122000000     7.040000000    -1.153000000
H    -1.655000000     6.300000000    -1.445000000
H    -0.274000000     6.907000000    -1.577000000
O     2.192000000    -7.015000000     1.108000000
H     1.788000000    -7.575000000     1.770000000
H     1.955000000    -6.125000000     1.368000000
O     3.034000000     4.536000000    -3.816000000
H     3.546000000     4.601000000    -3.010000000
H     2.683000000     3.645000000    -3.806000000
O    -5.737000000     0.104000000     0.033000000
H    -6.173000000     0.954000000    -0.020000000
H    -5.563000000    -0.019000000     0.966000000
O     4.064000000     2.410000000    -2.284000000
H     4.069000000     3.242000000    -1.810000000
H     3.138000000     2.234000000    -2.447000000
O    -1.366000000    -4.289000000    -2.994000000
H    -1.352000000    -3.681000000    -3.734000000
H    -0.830000000    -3.864000000    -2.325000000
O    -1.101000000     4.451000000    -4.351000000
H    -0.561000000     3.773000000    -3.946000000
H    -0.850000000     5.258000000    -3.901000000
O     0.742000000    -2.234000000     4.114000000
H     0.455000000    -3.039000000     3.682000000
H    -0.005000000    -1.972000000     4.652000000
O     2.186000000    -2.744000000     6.493000000
H     1.721000000    -3.539000000     6.754000000
H     1.792000000    -2.499000000     5.656000000
O    -4.201000000     2.382000000    -1.342000000
H    -4.843000000     2.028000000    -1.957000000
H    -4.592000000     2.241000000    -0.480000000
O     0.008000000     0.987000000    -5.363000000
H    -0.658000000     1.536000000    -5.778000000
H     0.087000000     1.335000000    -4.475000000
O     0.883000000    -4.827000000     2.214000000
H     0.547000000    -5.320000000     2.962000000
H     0.163000000    -4.830000000     1.583000000
O    -6.443000000    -2.668000000     3.791000000
H    -6.659000000    -1.819000000     3.406000000
H    -5.626000000    -2.925000000     3.363000000
O     3.056000000     1.361000000     4.537000000
H     3.615000000     1.086000000     5.263000000
H     3.224000000     2.299000000     4.447000000
O    -2.533000000     4.861000000    -1.821000000
H    -2.957000000     4.549000000    -2.621000000
H    -3.095000000     4.547000000    -1.113000000
O     0.359000000     1.740000000     5.248000000
H     1.194000000     1.483000000     4.859000000
H     0.228000000     1.119000000     5.965000000
O     3.585000000    -3.884000000     2.352000000
H     3.479000000    -3.004000000     2.714000000
H     2.771000000    -4.047000000     1.875000000
O    -3.880000000    -3.123000000     2.712000000
H    -3.739000000    -3.299000000     1.782000000
H    -3.559000000    -3.908000000     3.156000000
O     1.337000000     4.909000000     2.503000000
H     0.631000000     5.024000000     1.867000000
H     1.931000000     4.283000000     2.090000000
O     4.010000000     5.825000000    -6.113000000
H     4.301000000     6.492000000    -5.491000000
H     3.511000000     5.204000000    -5.582000000
O    -2.688000000    -5.711000000     3.702000000
H    -2.899000000    -6.206000000     2.910000000
H    -1.740000000    -5.806000000     3.797000000
O    -3.307000000    -3.384000000    -0.081000000
H    -3.982000000    -4.032000000    -0.284000000
H    -3.516000000    -2.637000000    -0.643000000
O    -4.152000000    -1.251000000    -1.645000000
H    -4.818000000    -0.922000000    -1.040000000
H    -3.737000000    -0.463000000    -1.996000000
