158
-3037.72305
C    -0.850000000     1.107000000    -0.464000000
H    -1.414000000     2.028000000    -0.584000000
C    -1.077000000     0.401000000     0.673000000
H    -1.974000000     0.631000000     1.242000000
C    -0.272000000    -0.755000000     0.952000000
H    -0.539000000    -1.454000000     1.723000000
C     0.893000000    -0.995000000     0.209000000
H     1.446000000    -1.902000000     0.441000000
C     1.156000000    -0.122000000    -0.866000000
H     2.052000000    -0.232000000    -1.471000000
C     0.277000000     0.902000000    -1.279000000
C     0.597000000     1.779000000    -2.425000000
O    -0.075000000     2.804000000    -2.540000000
O     1.453000000     1.482000000    -3.265000000
O     6.409000000    -2.979000000    -0.975000000
H     5.890000000    -2.659000000    -1.714000000
H     6.324000000    -3.931000000    -1.018000000
O    -3.646000000    -2.383000000     4.628000000
H    -3.566000000    -3.034000000     5.325000000
H    -3.940000000    -2.882000000     3.867000000
O    -2.645000000     2.184000000     4.289000000
H    -2.552000000     2.340000000     5.229000000
H    -1.989000000     2.752000000     3.885000000
O     0.741000000     0.069000000    -5.456000000
H     1.342000000     0.405000000    -6.122000000
H     0.924000000     0.599000000    -4.680000000
O     0.408000000    -5.543000000     4.215000000
H     0.089000000    -6.289000000     4.723000000
H    -0.105000000    -4.800000000     4.532000000
O     3.518000000    -3.923000000    -2.150000000
H     2.683000000    -3.606000000    -2.493000000
H     4.173000000    -3.347000000    -2.544000000
O     3.886000000    -0.018000000    -4.320000000
H     4.009000000     0.585000000    -5.053000000
H     3.368000000     0.478000000    -3.686000000
O    -2.101000000    -3.408000000     0.038000000
H    -1.985000000    -3.596000000     0.969000000
H    -2.944000000    -2.958000000    -0.012000000
O    -3.923000000     2.557000000     1.841000000
H    -3.712000000     2.684000000     2.766000000
H    -3.315000000     3.132000000     1.375000000
O    -4.754000000    -0.006000000     4.881000000
H    -4.318000000    -0.850000000     4.766000000
H    -4.063000000     0.641000000     4.745000000
O     1.004000000     6.968000000    -4.207000000
H     0.188000000     7.406000000    -4.448000000
H     1.686000000     7.470000000    -4.653000000
O     0.850000000     0.966000000     3.448000000
H     1.144000000     0.228000000     2.915000000
H    -0.064000000     1.096000000     3.195000000
O    -0.928000000     2.051000000    -7.977000000
H    -0.835000000     2.531000000    -7.154000000
H    -0.696000000     2.688000000    -8.653000000
O     3.970000000     0.331000000     2.016000000
H     3.277000000    -0.322000000     2.105000000
H     4.755000000    -0.178000000     1.814000000
O     1.641000000    -2.339000000    -3.576000000
H     0.888000000    -1.910000000    -3.982000000
H     2.392000000    -2.038000000    -4.086000000
O     5.535000000     2.912000000    -4.709000000
H     5.027000000     2.585000000    -3.967000000
H     6.310000000     3.310000000    -4.313000000
O    -3.925000000     4.096000000    -1.947000000
H    -3.409000000     3.470000000    -2.455000000
H    -3.694000000     3.912000000    -1.036000000
O     2.167000000    -1.668000000     2.859000000
H     2.718000000    -2.449000000     2.919000000
H     1.455000000    -1.829000000     3.478000000
O     0.004000000    -3.467000000     6.608000000
H    -0.588000000    -2.893000000     7.095000000
H     0.004000000    -3.112000000     5.719000000
O    -0.117000000    -2.065000000    -7.046000000
H     0.162000000    -1.392000000    -6.426000000
H    -0.941000000    -1.734000000    -7.405000000
O     5.390000000    -2.496000000    -3.458000000
H     5.732000000    -3.005000000    -4.194000000
H     5.344000000    -1.599000000    -3.788000000
O    -2.020000000    -1.903000000    -2.456000000
H    -2.935000000    -1.854000000    -2.181000000
H    -1.594000000    -2.429000000    -1.779000000
O     2.994000000    -0.775000000     5.982000000
H     2.400000000    -1.299000000     6.519000000
H     3.642000000    -1.401000000     5.660000000
O     2.924000000     5.363000000    -3.244000000
H     3.036000000     4.582000000    -3.787000000
H     2.162000000     5.807000000    -3.617000000
O    -5.622000000     1.326000000     0.311000000
H    -5.019000000     1.539000000     1.023000000
H    -6.342000000     0.860000000     0.737000000
O     3.902000000     2.483000000    -2.518000000
H     3.950000000     2.493000000    -1.562000000
H     3.057000000     2.076000000    -2.712000000
O    -0.250000000    -5.020000000    -1.547000000
H     0.110000000    -4.348000000    -2.127000000
H    -0.856000000    -4.545000000    -0.978000000
O     2.152000000     3.735000000    -6.385000000
H     1.794000000     3.948000000    -7.247000000
H     1.449000000     3.951000000    -5.773000000
O    -0.260000000     5.152000000    -0.978000000
H    -0.120000000     4.439000000    -1.602000000
H     0.552000000     5.191000000    -0.473000000
O     2.835000000    -4.145000000     3.697000000
H     2.268000000    -4.915000000     3.729000000
H     3.086000000    -3.994000000     4.608000000
O     6.715000000     1.340000000    -1.884000000
H     7.208000000     2.161000000    -1.875000000
H     5.845000000     1.586000000    -2.197000000
O     0.191000000     4.313000000    -4.842000000
H     0.120000000     5.162000000    -4.407000000
H     0.234000000     3.679000000    -4.126000000
O    -0.175000000     0.269000000     6.416000000
H     0.350000000     0.507000000     5.651000000
H     0.113000000     0.873000000     7.101000000
O    -2.212000000     4.468000000     0.746000000
H    -1.921000000     5.030000000     1.464000000
H    -1.631000000     4.690000000     0.018000000
O    -2.050000000     7.234000000    -0.840000000
H    -1.411000000     7.929000000    -0.677000000
H    -1.519000000     6.460000000    -1.028000000
O     3.076000000     1.081000000    -6.854000000
H     2.702000000     1.853000000    -6.428000000
H     3.288000000     1.376000000    -7.740000000
O    -0.532000000    -1.578000000     4.309000000
H    -1.447000000    -1.858000000     4.329000000
H    -0.460000000    -0.945000000     5.024000000
O     4.419000000     2.615000000     0.036000000
H     4.159000000     1.832000000     0.521000000
H     3.989000000     3.336000000     0.497000000
O     6.332000000    -0.616000000     0.244000000
H     6.567000000     0.067000000    -0.384000000
H     6.378000000    -1.430000000    -0.259000000
O     2.338000000     6.003000000    -0.621000000
H     3.064000000     6.547000000    -0.316000000
H     2.587000000     5.746000000    -1.509000000
O     2.115000000     3.667000000     1.053000000
H     2.133000000     4.488000000     0.563000000
H     1.200000000     3.388000000     1.021000000
O     3.939000000     1.404000000     4.835000000
H     3.714000000     1.240000000     3.919000000
H     3.472000000     0.726000000     5.322000000
O    -4.094000000    -3.980000000     2.100000000
H    -4.339000000    -3.665000000     1.230000000
H    -4.388000000    -4.891000000     2.115000000
O     0.170000000     3.797000000     4.005000000
H     0.759000000     3.134000000     3.644000000
H     0.216000000     3.668000000     4.952000000
O     5.090000000    -4.851000000     2.037000000
H     4.373000000    -4.713000000     2.657000000
H     4.664000000    -5.192000000     1.250000000
O    -2.366000000     2.079000000    -3.450000000
H    -1.551000000     2.498000000    -3.175000000
H    -2.085000000     1.340000000    -3.989000000
O    -4.356000000    -1.689000000    -0.480000000
H    -5.133000000    -2.246000000    -0.429000000
H    -4.688000000    -0.844000000    -0.784000000
O    -4.766000000     0.501000000    -2.288000000
H    -4.864000000     0.906000000    -1.427000000
H    -3.931000000     0.833000000    -2.616000000
