158
-3046.07511
C     0.713000000    -0.810000000    -0.972000000
H     1.140000000    -1.412000000    -1.771000000
C    -0.556000000    -1.093000000    -0.567000000
H    -1.188000000    -1.860000000    -1.009000000
C    -1.137000000    -0.190000000     0.330000000
H    -2.183000000    -0.371000000     0.655000000
C    -0.447000000     0.905000000     0.832000000
H    -1.051000000     1.583000000     1.430000000
C     0.772000000     1.219000000     0.365000000
H     1.309000000     2.078000000     0.758000000
C     1.459000000     0.332000000    -0.511000000
C     2.963000000     0.469000000    -0.813000000
O     3.434000000    -0.205000000    -1.722000000
O     3.637000000     1.175000000    -0.053000000
O    -2.693000000     2.432000000    -1.571000000
H    -3.245000000     2.073000000    -0.877000000
H    -2.148000000     3.084000000    -1.131000000
O     0.196000000    -2.082000000    -5.056000000
H     1.122000000    -2.326000000    -5.058000000
H     0.192000000    -1.157000000    -5.303000000
O     5.311000000    -1.295000000    -6.393000000
H     6.186000000    -1.182000000    -6.021000000
H     4.718000000    -1.165000000    -5.653000000
O    -3.797000000    -2.905000000    -1.460000000
H    -2.988000000    -2.709000000    -1.933000000
H    -3.923000000    -3.846000000    -1.579000000
O     6.102000000    -0.852000000    -1.629000000
H     5.209000000    -0.513000000    -1.691000000
H     6.200000000    -1.101000000    -0.710000000
O     6.542000000    -2.556000000    -3.585000000
H     7.124000000    -1.911000000    -3.988000000
H     6.328000000    -2.184000000    -2.729000000
O     5.114000000    -2.287000000     0.715000000
H     4.614000000    -1.538000000     1.041000000
H     5.233000000    -2.848000000     1.481000000
O    -5.339000000    -1.253000000    -0.073000000
H    -5.602000000    -1.509000000     0.811000000
H    -4.739000000    -1.944000000    -0.354000000
O    -2.299000000    -4.171000000     0.718000000
H    -1.748000000    -4.926000000     0.510000000
H    -3.114000000    -4.332000000     0.242000000
O     3.424000000    -1.297000000     2.668000000
H     3.991000000    -1.414000000     3.430000000
H     3.131000000    -2.181000000     2.449000000
O    -4.173000000    -2.826000000    -4.758000000
H    -3.301000000    -3.067000000    -4.447000000
H    -4.721000000    -2.846000000    -3.974000000
O     5.283000000     5.027000000    -0.137000000
H     4.951000000     4.536000000    -0.888000000
H     6.092000000     4.576000000     0.106000000
O    -1.200000000     4.399000000    -0.263000000
H    -1.038000000     5.101000000    -0.894000000
H    -0.751000000     4.685000000     0.533000000
O     2.480000000     5.058000000    -1.032000000
H     3.087000000     5.319000000    -0.339000000
H     2.550000000     5.755000000    -1.685000000
O    -6.807000000     1.261000000    -0.251000000
H    -6.182000000     1.737000000    -0.797000000
H    -6.488000000     0.358000000    -0.253000000
O    -1.929000000    -3.352000000     3.260000000
H    -2.044000000    -3.256000000     2.315000000
H    -2.418000000    -2.621000000     3.637000000
O    -1.798000000    -3.299000000    -3.485000000
H    -1.166000000    -2.622000000    -3.725000000
H    -1.329000000    -4.123000000    -3.618000000
O     2.689000000    -3.202000000    -4.595000000
H     3.432000000    -3.733000000    -4.881000000
H     3.020000000    -2.304000000    -4.600000000
O    -5.196000000    -0.543000000    -2.938000000
H    -6.047000000    -0.961000000    -3.071000000
H    -4.911000000    -0.849000000    -2.077000000
O     3.345000000    -0.537000000    -4.305000000
H     3.044000000     0.341000000    -4.538000000
H     3.359000000    -0.539000000    -3.347000000
O     2.083000000     1.885000000    -4.238000000
H     1.706000000     2.440000000    -4.921000000
H     1.522000000     2.030000000    -3.476000000
O    -3.124000000     2.859000000     3.675000000
H    -3.708000000     2.567000000     4.376000000
H    -2.406000000     3.300000000     4.130000000
O    -3.764000000     1.968000000     1.026000000
H    -3.162000000     2.415000000     1.621000000
H    -4.330000000     1.453000000     1.600000000
O    -0.637000000     4.327000000     4.713000000
H     0.217000000     3.898000000     4.765000000
H    -0.848000000     4.548000000     5.620000000
O     2.868000000     1.725000000     2.614000000
H     2.830000000     0.939000000     3.160000000
H     3.236000000     1.423000000     1.784000000
O     5.169000000     1.936000000    -2.172000000
H     4.437000000     1.759000000    -1.581000000
H     5.700000000     1.140000000    -2.140000000
O    -1.431000000     0.514000000    -3.123000000
H    -1.800000000     1.172000000    -2.533000000
H    -0.621000000     0.237000000    -2.695000000
O    -5.054000000     4.293000000     0.207000000
H    -4.495000000     3.543000000     0.411000000
H    -4.649000000     4.690000000    -0.564000000
O     0.300000000    -2.352000000     4.842000000
H    -0.644000000    -2.282000000     4.986000000
H     0.414000000    -2.182000000     3.907000000
O     5.414000000     2.625000000     3.209000000
H     5.981000000     1.976000000     2.794000000
H     4.534000000     2.255000000     3.136000000
O     0.275000000     5.020000000     2.087000000
H    -0.087000000     4.768000000     2.936000000
H     1.207000000     5.159000000     2.255000000
O    -5.021000000     0.107000000     3.217000000
H    -4.986000000    -0.817000000     2.970000000
H    -5.916000000     0.237000000     3.531000000
O    -5.768000000    -2.741000000     2.427000000
H    -5.482000000    -2.896000000     3.327000000
H    -6.592000000    -3.222000000     2.352000000
O     3.417000000    -2.917000000    -1.335000000
H     3.300000000    -1.974000000    -1.446000000
H     4.263000000    -3.004000000    -0.895000000
O    -2.390000000    -1.055000000     4.724000000
H    -2.602000000    -1.226000000     5.642000000
H    -3.101000000    -0.495000000     4.414000000
O     1.809000000    -5.138000000    -1.633000000
H     2.118000000    -4.294000000    -1.304000000
H     2.313000000    -5.786000000    -1.140000000
O     0.797000000     3.329000000    -2.186000000
H     0.037000000     3.407000000    -1.608000000
H     1.493000000     3.802000000    -1.731000000
O    -3.451000000     0.429000000    -4.994000000
H    -2.678000000     0.466000000    -4.430000000
H    -4.097000000    -0.058000000    -4.482000000
O    -0.218000000     0.881000000    -5.837000000
H    -0.503000000     0.961000000    -4.927000000
H    -0.137000000     1.785000000    -6.143000000
O    -3.043000000     5.694000000     3.162000000
H    -2.276000000     5.131000000     3.059000000
H    -2.815000000     6.280000000     3.884000000
O     6.490000000     1.653000000     0.697000000
H     5.658000000     1.472000000     0.259000000
H     6.419000000     2.566000000     0.978000000
O     0.378000000    -5.041000000    -4.241000000
H     0.956000000    -4.849000000    -3.503000000
H     0.964000000    -5.358000000    -4.929000000
O     0.703000000    -1.184000000     2.335000000
H     0.312000000    -0.855000000     1.525000000
H     1.638000000    -0.999000000     2.241000000
O     4.474000000     3.549000000    -4.312000000
H     4.840000000     2.890000000    -3.721000000
H     3.545000000     3.327000000    -4.372000000
O     5.026000000    -4.923000000    -2.718000000
H     5.576000000    -4.409000000    -3.310000000
H     4.179000000    -4.479000000    -2.733000000
O    -0.292000000     0.607000000     4.555000000
H     0.221000000     0.531000000     3.751000000
H    -0.876000000    -0.151000000     4.540000000
O    -0.393000000    -6.129000000     0.108000000
H     0.046000000    -6.245000000    -0.735000000
H     0.310000000    -5.897000000     0.714000000
O     8.041000000     0.234000000     2.220000000
H     7.477000000     0.642000000     1.562000000
H     8.905000000     0.615000000     2.064000000
