158
-3064.27795
C     0.099000000    -0.263000000    -1.406000000
H     0.098000000    -0.239000000    -2.493000000
C    -1.100000000    -0.336000000    -0.743000000
H    -1.996000000    -0.432000000    -1.351000000
C    -1.055000000    -0.119000000     0.623000000
H    -2.055000000    -0.212000000     1.213000000
C     0.124000000     0.254000000     1.286000000
H     0.177000000     0.324000000     2.370000000
C     1.324000000     0.168000000     0.581000000
H     2.244000000     0.364000000     1.126000000
C     1.340000000     0.066000000    -0.836000000
C     2.625000000     0.293000000    -1.636000000
O     2.573000000    -0.028000000    -2.831000000
O     3.647000000     0.806000000    -1.248000000
O     6.981000000    -0.602000000     0.602000000
H     7.466000000    -0.702000000     1.422000000
H     6.142000000    -1.032000000     0.765000000
O    -7.385000000     0.694000000     2.822000000
H    -7.369000000     1.544000000     3.262000000
H    -6.524000000     0.621000000     2.411000000
O    -4.061000000     2.967000000     4.981000000
H    -3.999000000     3.735000000     5.549000000
H    -4.996000000     2.884000000     4.792000000
O     6.137000000    -0.129000000    -2.067000000
H     6.529000000    -0.351000000    -1.222000000
H     5.305000000     0.288000000    -1.843000000
O     5.885000000    -3.452000000    -0.261000000
H     5.933000000    -4.259000000    -0.774000000
H     5.127000000    -2.988000000    -0.617000000
O     4.966000000     1.940000000     0.580000000
H     4.607000000     1.289000000    -0.023000000
H     5.335000000     1.426000000     1.298000000
O     0.558000000    -2.939000000     0.147000000
H     0.918000000    -3.578000000    -0.468000000
H     0.201000000    -2.246000000    -0.408000000
O    -5.430000000     3.458000000     0.811000000
H    -5.574000000     2.731000000     0.205000000
H    -4.850000000     3.099000000     1.482000000
O    -2.886000000     1.572000000     3.101000000
H    -3.308000000     2.115000000     3.766000000
H    -1.983000000     1.887000000     3.071000000
O    -6.566000000    -3.376000000     1.763000000
H    -7.214000000    -2.937000000     2.314000000
H    -6.785000000    -4.305000000     1.829000000
O    -1.022000000     2.929000000     0.424000000
H    -0.574000000     2.105000000     0.233000000
H    -0.317000000     3.547000000     0.614000000
O     1.586000000     3.489000000    -1.278000000
H     2.338000000     3.141000000    -1.757000000
H     0.826000000     3.086000000    -1.700000000
O     1.664000000     3.289000000    -5.053000000
H     1.060000000     3.210000000    -4.314000000
H     2.423000000     2.763000000    -4.798000000
O     2.406000000    -0.191000000     5.341000000
H     2.017000000     0.622000000     5.664000000
H     1.666000000    -0.685000000     4.988000000
O    -2.739000000     1.879000000    -3.145000000
H    -2.312000000     1.330000000    -3.803000000
H    -3.351000000     2.419000000    -3.645000000
O     3.834000000    -1.634000000    -5.844000000
H     4.357000000    -2.196000000    -5.272000000
H     4.010000000    -0.746000000    -5.533000000
O    -0.383000000     2.879000000     3.918000000
H    -0.009000000     2.291000000     4.574000000
H     0.351000000     3.097000000     3.345000000
O     4.014000000    -2.377000000    -2.255000000
H     4.547000000    -2.571000000    -3.025000000
H     3.446000000    -1.658000000    -2.531000000
O    -5.013000000    -1.045000000     4.059000000
H    -5.712000000    -0.559000000     4.497000000
H    -4.583000000    -0.397000000     3.502000000
O    -5.266000000    -3.030000000    -0.756000000
H    -5.870000000    -2.768000000    -1.451000000
H    -5.716000000    -2.793000000     0.055000000
O     4.117000000     1.378000000    -4.795000000
H     4.462000000     2.177000000    -4.397000000
H     3.650000000     0.939000000    -4.084000000
O    -5.021000000     0.399000000     1.770000000
H    -5.009000000     0.513000000     0.820000000
H    -4.148000000     0.666000000     2.055000000
O     4.096000000     2.987000000    -2.619000000
H     4.402000000     3.634000000    -1.984000000
H     4.090000000     2.161000000    -2.135000000
O    -0.609000000     3.811000000    -3.447000000
H    -1.401000000     3.328000000    -3.211000000
H    -0.795000000     4.716000000    -3.196000000
O    -2.286000000    -5.943000000    -0.226000000
H    -1.462000000    -5.933000000     0.261000000
H    -2.510000000    -5.019000000    -0.337000000
O    -3.067000000     5.057000000     0.379000000
H    -3.936000000     4.854000000     0.727000000
H    -2.551000000     4.269000000     0.550000000
O    -1.962000000     0.677000000     5.797000000
H    -2.391000000     1.284000000     5.194000000
H    -1.842000000    -0.124000000     5.286000000
O     2.628000000    -2.510000000     2.191000000
H     2.020000000    -2.258000000     2.886000000
H     2.066000000    -2.711000000     1.442000000
O    -3.913000000    -2.932000000     2.385000000
H    -4.104000000    -2.226000000     3.003000000
H    -4.762000000    -3.152000000     2.002000000
O     4.261000000     2.576000000     3.681000000
H     3.855000000     2.988000000     4.444000000
H     5.018000000     2.110000000     4.036000000
O    -0.431000000    -3.885000000    -4.511000000
H     0.205000000    -3.169000000    -4.533000000
H    -0.400000000    -4.261000000    -5.390000000
O     7.295000000    -0.531000000    -4.883000000
H     6.935000000     0.268000000    -5.269000000
H     6.760000000    -0.681000000    -4.103000000
O     0.244000000     1.804000000     6.493000000
H    -0.601000000     1.393000000     6.315000000
H     0.163000000     2.142000000     7.385000000
O    -3.900000000     1.561000000    -0.609000000
H    -3.608000000     1.422000000    -1.510000000
H    -3.102000000     1.784000000    -0.130000000
O     6.651000000     4.021000000    -0.503000000
H     6.457000000     3.221000000    -0.015000000
H     7.054000000     4.603000000     0.141000000
O    -1.671000000    -4.351000000     4.891000000
H    -1.764000000    -4.364000000     3.938000000
H    -2.563000000    -4.232000000     5.217000000
O    -4.223000000    -3.175000000     5.710000000
H    -4.427000000    -2.430000000     5.146000000
H    -4.788000000    -3.879000000     5.392000000
O     4.848000000    -0.866000000     2.739000000
H     4.760000000    -1.013000000     3.681000000
H     4.126000000    -1.360000000     2.351000000
O    -2.407000000    -2.359000000    -3.287000000
H    -2.555000000    -1.821000000    -4.064000000
H    -1.618000000    -2.862000000    -3.491000000
O     1.781000000    -4.231000000    -2.135000000
H     2.537000000    -3.653000000    -2.034000000
H     1.488000000    -4.087000000    -3.035000000
O     1.420000000    -2.078000000    -4.308000000
H     1.528000000    -1.282000000    -3.787000000
H     2.025000000    -1.967000000    -5.041000000
O     0.689000000    -1.996000000     4.162000000
H    -0.037000000    -2.116000000     3.550000000
H     0.657000000    -2.769000000     4.726000000
O     3.621000000     4.372000000     0.332000000
H     2.897000000     4.185000000    -0.266000000
H     4.095000000     3.544000000     0.401000000
O     6.309000000     1.653000000    -6.234000000
H     5.437000000     1.522000000    -5.862000000
H     6.180000000     2.301000000    -6.926000000
O    -2.436000000    -3.409000000    -0.660000000
H    -3.379000000    -3.287000000    -0.552000000
H    -2.297000000    -3.380000000    -1.607000000
O    -1.129000000    -3.221000000     2.232000000
H    -0.760000000    -2.916000000     1.403000000
H    -2.075000000    -3.120000000     2.125000000
O     1.802000000     3.434000000     2.298000000
H     2.163000000     4.305000000     2.465000000
H     2.562000000     2.853000000     2.314000000
O    -2.679000000    -0.990000000    -5.633000000
H    -3.459000000    -0.625000000    -6.052000000
H    -1.966000000    -0.791000000    -6.240000000
