158
-3045.90339
C     0.342000000    -0.903000000    -1.090000000
H     0.403000000    -1.637000000    -1.890000000
C    -0.929000000    -0.809000000    -0.483000000
H    -1.774000000    -1.359000000    -0.890000000
C    -1.089000000     0.037000000     0.559000000
H    -2.094000000     0.196000000     1.001000000
C    -0.011000000     0.895000000     0.974000000
H    -0.161000000     1.659000000     1.732000000
C     1.228000000     0.769000000     0.395000000
H     2.044000000     1.330000000     0.844000000
C     1.463000000    -0.086000000    -0.714000000
C     2.794000000    -0.104000000    -1.363000000
O     3.020000000    -0.874000000    -2.299000000
O     3.598000000     0.738000000    -1.017000000
O    -4.952000000    -5.103000000    -0.252000000
H    -5.193000000    -4.568000000     0.504000000
H    -5.782000000    -5.283000000    -0.693000000
O    -2.596000000     2.312000000    -2.539000000
H    -2.675000000     2.454000000    -1.596000000
H    -2.085000000     3.059000000    -2.852000000
O     1.461000000     2.573000000     6.799000000
H     1.202000000     2.297000000     5.920000000
H     0.967000000     2.001000000     7.386000000
O     3.191000000    -1.656000000    -7.267000000
H     3.967000000    -1.831000000    -6.735000000
H     2.455000000    -1.805000000    -6.674000000
O    -6.132000000    -1.445000000    -1.607000000
H    -5.238000000    -1.195000000    -1.839000000
H    -6.278000000    -2.269000000    -2.071000000
O     5.502000000    -1.485000000    -1.509000000
H     4.710000000    -1.044000000    -1.817000000
H     5.339000000    -1.649000000    -0.580000000
O     5.326000000    -1.730000000    -5.357000000
H     6.206000000    -1.774000000    -4.983000000
H     4.899000000    -1.017000000    -4.883000000
O     4.251000000    -2.648000000     1.078000000
H     4.228000000    -1.834000000     1.581000000
H     3.368000000    -3.008000000     1.168000000
O    -5.668000000    -2.479000000     0.872000000
H    -6.214000000    -2.145000000     1.583000000
H    -5.855000000    -1.899000000     0.134000000
O     8.235000000    -0.646000000    -1.819000000
H     8.407000000    -1.347000000    -2.448000000
H     7.297000000    -0.711000000    -1.640000000
O    -3.222000000    -3.389000000     1.577000000
H    -3.277000000    -3.746000000     0.691000000
H    -4.034000000    -2.894000000     1.686000000
O     2.031000000    -4.002000000     1.066000000
H     2.082000000    -4.889000000     1.423000000
H     1.219000000    -3.646000000     1.426000000
O     2.423000000     3.203000000    -2.438000000
H     2.657000000     2.902000000    -1.560000000
H     3.221000000     3.081000000    -2.953000000
O    -0.775000000     4.460000000    -1.979000000
H    -0.821000000     5.147000000    -2.643000000
H    -0.133000000     4.781000000    -1.345000000
O    -3.343000000    -5.718000000     3.457000000
H    -3.132000000    -5.037000000     2.819000000
H    -4.294000000    -5.812000000     3.401000000
O    -3.744000000    -0.452000000    -2.145000000
H    -3.450000000     0.320000000    -1.661000000
H    -3.031000000    -0.637000000    -2.756000000
O     0.254000000    -3.744000000    -4.429000000
H     0.385000000    -3.924000000    -3.498000000
H     0.800000000    -2.978000000    -4.604000000
O     1.869000000    -1.643000000    -4.776000000
H     1.568000000    -0.772000000    -5.036000000
H     2.293000000    -1.508000000    -3.929000000
O     0.503000000     0.615000000    -5.848000000
H     0.159000000     1.182000000    -6.538000000
H     0.538000000     1.176000000    -5.073000000
O    -2.918000000     3.032000000     0.356000000
H    -2.539000000     3.735000000     0.883000000
H    -3.408000000     2.500000000     0.983000000
O     6.371000000     2.620000000    -1.343000000
H     6.345000000     3.447000000    -1.825000000
H     6.464000000     1.950000000    -2.021000000
O    -1.798000000     1.012000000     5.719000000
H    -1.838000000     0.082000000     5.496000000
H    -1.155000000     1.377000000     5.111000000
O     7.767000000     2.373000000     0.932000000
H     7.143000000     2.358000000     0.206000000
H     8.165000000     3.242000000     0.888000000
O    -2.497000000    -4.233000000    -4.025000000
H    -3.064000000    -3.694000000    -4.577000000
H    -1.612000000    -4.051000000    -4.342000000
O    -3.792000000     2.301000000     6.873000000
H    -3.714000000     3.098000000     6.349000000
H    -3.179000000     1.687000000     6.467000000
O     4.439000000     1.825000000    -3.674000000
H     4.199000000     1.171000000    -3.017000000
H     5.316000000     1.569000000    -3.958000000
O    -2.456000000     0.703000000    -4.668000000
H    -2.583000000     1.327000000    -3.954000000
H    -1.511000000     0.699000000    -4.818000000
O     3.399000000     5.347000000     1.592000000
H     3.602000000     4.422000000     1.458000000
H     3.240000000     5.688000000     0.712000000
O    -1.334000000    -2.318000000     5.219000000
H    -2.248000000    -2.056000000     5.108000000
H    -0.879000000    -1.918000000     4.478000000
O     3.073000000     2.064000000     3.077000000
H     3.273000000     2.332000000     2.180000000
H     3.927000000     2.010000000     3.506000000
O    -4.698000000     2.069000000     2.185000000
H    -4.598000000     1.296000000     2.741000000
H    -5.133000000     2.712000000     2.745000000
O    -5.588000000     0.513000000     4.008000000
H    -6.507000000     0.513000000     3.742000000
H    -5.588000000     0.930000000     4.870000000
O    -0.538000000    -3.619000000     1.648000000
H    -0.646000000    -3.888000000     0.736000000
H    -1.432000000    -3.519000000     1.976000000
O     2.267000000    -3.515000000    -1.886000000
H     2.608000000    -2.649000000    -2.110000000
H     2.335000000    -3.559000000    -0.932000000
O    -3.963000000    -1.728000000     4.531000000
H    -4.360000000    -0.868000000     4.391000000
H    -4.701000000    -2.337000000     4.525000000
O     0.961000000    -6.125000000    -2.209000000
H     1.680000000    -5.496000000    -2.151000000
H     1.137000000    -6.617000000    -3.011000000
O     0.365000000     1.982000000    -3.585000000
H    -0.324000000     2.140000000    -2.940000000
H     1.093000000     2.534000000    -3.297000000
O    -6.230000000     3.066000000    -0.303000000
H    -5.773000000     2.326000000     0.096000000
H    -5.670000000     3.820000000    -0.120000000
O     6.273000000    -4.392000000    -1.603000000
H     5.880000000    -3.520000000    -1.638000000
H     7.013000000    -4.297000000    -1.002000000
O    -3.177000000     5.260000000     2.456000000
H    -2.302000000     5.394000000     2.820000000
H    -3.609000000     4.677000000     3.080000000
O     4.342000000     2.897000000     0.753000000
H     4.178000000     2.102000000     0.247000000
H     4.945000000     3.406000000     0.212000000
O     0.188000000    -1.110000000     3.388000000
H     0.105000000    -1.126000000     2.434000000
H     1.041000000    -1.510000000     3.560000000
O     3.575000000     3.118000000    -6.030000000
H     3.802000000     2.728000000    -5.187000000
H     3.099000000     2.428000000    -6.493000000
O     3.120000000    -4.708000000    -4.239000000
H     3.364000000    -4.003000000    -4.839000000
H     2.964000000    -4.269000000    -3.403000000
O     0.703000000     1.718000000     4.169000000
H     1.512000000     2.018000000     3.754000000
H     0.452000000     0.941000000     3.669000000
O    -1.228000000    -5.102000000    -0.657000000
H    -0.642000000    -5.419000000    -1.345000000
H    -1.948000000    -5.732000000    -0.648000000
O     4.016000000    -0.672000000     2.975000000
H     3.282000000    -0.074000000     3.118000000
H     4.782000000    -0.101000000     2.918000000
O    -4.777000000    -4.534000000    -2.972000000
H    -3.856000000    -4.575000000    -3.229000000
H    -4.759000000    -4.512000000    -2.016000000
