158
-3044.02207
C     0.209000000    -1.420000000    -0.429000000
H     0.164000000    -2.414000000    -0.866000000
C    -1.017000000    -0.790000000    -0.162000000
H    -1.917000000    -1.383000000    -0.301000000
C    -1.011000000     0.449000000     0.381000000
H    -2.003000000     0.778000000     0.804000000
C     0.097000000     1.205000000     0.568000000
H     0.126000000     2.251000000     0.863000000
C     1.271000000     0.657000000     0.055000000
H     2.182000000     1.243000000    -0.034000000
C     1.400000000    -0.658000000    -0.365000000
C     2.654000000    -1.180000000    -0.974000000
O     2.764000000    -2.319000000    -1.330000000
O     3.513000000    -0.333000000    -1.158000000
O    -1.268000000     6.822000000     0.171000000
H    -0.333000000     6.655000000     0.054000000
H    -1.528000000     7.295000000    -0.619000000
O    -3.405000000     2.377000000    -3.554000000
H    -3.870000000     2.740000000    -2.801000000
H    -2.793000000     3.065000000    -3.813000000
O    -4.866000000     3.134000000    -1.430000000
H    -5.534000000     2.592000000    -1.009000000
H    -4.149000000     3.165000000    -0.796000000
O     7.315000000     0.899000000    -4.095000000
H     8.192000000     0.700000000    -3.767000000
H     6.725000000     0.565000000    -3.419000000
O     4.991000000    -3.651000000    -5.652000000
H     5.811000000    -3.202000000    -5.856000000
H     4.879000000    -3.530000000    -4.709000000
O     3.601000000    -0.870000000    -5.383000000
H     4.424000000    -0.875000000    -4.895000000
H     2.997000000    -1.377000000    -4.841000000
O     5.040000000    -3.134000000    -2.963000000
H     4.456000000    -3.075000000    -2.206000000
H     5.554000000    -3.926000000    -2.807000000
O    -3.994000000    -4.041000000     0.422000000
H    -3.596000000    -4.706000000    -0.140000000
H    -4.859000000    -3.892000000     0.041000000
O     3.018000000    -3.100000000     2.518000000
H     3.221000000    -2.906000000     3.434000000
H     2.627000000    -3.973000000     2.540000000
O     4.805000000     2.287000000    -1.377000000
H     4.814000000     1.347000000    -1.197000000
H     4.868000000     2.696000000    -0.514000000
O    -2.389000000     4.090000000    -0.002000000
H    -2.171000000     5.003000000     0.185000000
H    -2.020000000     3.600000000     0.734000000
O     1.075000000     4.304000000    -3.412000000
H     1.833000000     3.764000000    -3.189000000
H     1.241000000     5.141000000    -2.978000000
O    -8.105000000     0.449000000    -1.069000000
H    -7.366000000     0.634000000    -0.490000000
H    -8.499000000    -0.346000000    -0.710000000
O    -1.753000000    -3.534000000     1.875000000
H    -2.622000000    -3.720000000     1.520000000
H    -1.529000000    -2.673000000     1.522000000
O    -4.652000000    -3.083000000    -3.921000000
H    -4.099000000    -2.303000000    -3.897000000
H    -4.080000000    -3.772000000    -4.259000000
O     3.002000000    -5.436000000    -3.521000000
H     2.619000000    -4.799000000    -4.124000000
H     2.558000000    -5.275000000    -2.688000000
O     1.711000000    -2.173000000    -3.823000000
H     1.067000000    -1.467000000    -3.873000000
H     1.956000000    -2.210000000    -2.899000000
O     0.305000000     0.140000000    -3.671000000
H     0.474000000     0.993000000    -4.072000000
H    -0.622000000     0.164000000    -3.437000000
O    -4.311000000     2.097000000     3.138000000
H    -3.845000000     2.562000000     3.833000000
H    -4.272000000     1.176000000     3.397000000
O    -5.465000000     1.364000000     0.579000000
H    -5.179000000     1.814000000     1.374000000
H    -4.708000000     0.841000000     0.315000000
O     6.407000000     3.861000000     0.618000000
H     7.167000000     3.398000000     0.969000000
H     5.730000000     3.751000000     1.285000000
O    -1.757000000     3.449000000     2.868000000
H    -1.256000000     2.685000000     3.153000000
H    -2.343000000     3.638000000     3.601000000
O     4.364000000    -0.068000000     1.505000000
H     5.178000000    -0.555000000     1.629000000
H     4.036000000    -0.362000000     0.655000000
O    -1.931000000    -0.057000000     5.440000000
H    -1.425000000     0.480000000     4.831000000
H    -2.464000000    -0.619000000     4.878000000
O     5.312000000    -0.427000000    -3.038000000
H     4.628000000    -0.373000000    -2.370000000
H     5.582000000    -1.346000000    -3.030000000
O    -2.474000000    -0.157000000    -3.506000000
H    -2.937000000     0.676000000    -3.599000000
H    -2.575000000    -0.385000000    -2.582000000
O     3.975000000     5.121000000     2.065000000
H     4.346000000     4.331000000     2.457000000
H     3.817000000     4.883000000     1.151000000
O    -0.002000000    -3.356000000     4.363000000
H    -0.754000000    -3.692000000     3.875000000
H     0.375000000    -2.688000000     3.791000000
O     5.098000000     2.223000000     2.729000000
H     5.734000000     1.960000000     3.394000000
H     4.710000000     1.401000000     2.430000000
O     0.503000000     4.721000000     1.498000000
H    -0.189000000     4.263000000     1.974000000
H     0.797000000     5.403000000     2.102000000
O     6.756000000     3.495000000    -2.968000000
H     5.964000000     3.214000000    -2.510000000
H     6.973000000     2.761000000    -3.543000000
O     2.618000000     4.496000000    -0.278000000
H     1.903000000     4.576000000     0.354000000
H     2.242000000     3.997000000    -1.003000000
O    -5.951000000    -2.354000000     2.581000000
H    -5.964000000    -2.414000000     1.626000000
H    -6.757000000    -1.887000000     2.802000000
O    -0.459000000    -6.076000000     2.319000000
H    -0.786000000    -5.177000000     2.295000000
H    -1.249000000    -6.617000000     2.344000000
O     2.455000000    -4.811000000    -0.826000000
H     2.411000000    -3.855000000    -0.818000000
H     1.934000000    -5.081000000    -0.070000000
O    -3.910000000    -0.717000000     3.792000000
H    -4.504000000    -1.321000000     4.237000000
H    -3.878000000    -1.034000000     2.890000000
O    -0.271000000    -6.844000000    -1.870000000
H     0.663000000    -6.777000000    -1.671000000
H    -0.533000000    -7.688000000    -1.503000000
O    -2.889000000     2.876000000     5.543000000
H    -3.457000000     2.530000000     6.231000000
H    -2.114000000     2.314000000     5.567000000
O    -1.890000000     4.797000000    -3.020000000
H    -1.996000000     4.694000000    -2.074000000
H    -1.028000000     4.425000000    -3.206000000
O    -4.371000000    -0.690000000    -1.426000000
H    -5.084000000    -1.294000000    -1.218000000
H    -4.722000000    -0.137000000    -2.123000000
O    -4.575000000     4.463000000     1.726000000
H    -4.720000000     3.590000000     2.091000000
H    -3.639000000     4.487000000     1.529000000
O     6.043000000    -2.752000000    -0.023000000
H     6.125000000    -3.365000000     0.709000000
H     5.135000000    -2.451000000     0.018000000
O     0.842000000    -1.407000000     2.554000000
H     0.620000000    -1.023000000     1.706000000
H     1.746000000    -1.705000000     2.453000000
O     2.736000000     2.118000000    -3.069000000
H     3.539000000     2.195000000    -2.553000000
H     2.465000000     1.207000000    -2.955000000
O     5.097000000    -5.752000000    -1.527000000
H     5.038000000    -6.284000000    -2.321000000
H     4.190000000    -5.526000000    -1.322000000
O    -0.025000000     1.242000000     4.063000000
H     0.521000000     1.189000000     4.848000000
H     0.234000000     0.484000000     3.540000000
O    -2.936000000    -6.305000000    -0.762000000
H    -3.261000000    -7.059000000    -1.255000000
H    -1.983000000    -6.375000000    -0.819000000
O    -1.642000000    -2.324000000    -5.203000000
H    -1.031000000    -2.068000000    -5.895000000
H    -1.740000000    -1.537000000    -4.668000000
