158
-3058.43691
C     0.662000000    -0.358000000     1.206000000
H     1.059000000    -0.690000000     2.162000000
C    -0.657000000    -0.112000000     1.092000000
H    -1.396000000    -0.189000000     1.885000000
C    -1.179000000     0.165000000    -0.149000000
H    -2.317000000     0.171000000    -0.274000000
C    -0.348000000     0.214000000    -1.293000000
H    -0.767000000     0.394000000    -2.279000000
C     1.014000000    -0.065000000    -1.170000000
H     1.580000000    -0.182000000    -2.091000000
C     1.582000000    -0.272000000     0.092000000
C     3.041000000    -0.384000000     0.363000000
O     3.445000000    -0.199000000     1.482000000
O     3.782000000    -0.281000000    -0.604000000
O    -4.678000000     1.548000000    -1.045000000
H    -4.615000000     1.301000000    -0.122000000
H    -4.341000000     2.444000000    -1.076000000
O     4.350000000    -2.823000000     5.028000000
H     4.501000000    -2.518000000     4.134000000
H     4.375000000    -3.778000000     4.963000000
O    -5.014000000     0.585000000     1.384000000
H    -5.173000000    -0.326000000     1.632000000
H    -4.691000000     0.999000000     2.184000000
O    -2.434000000     1.679000000    -4.444000000
H    -2.090000000     0.916000000    -4.909000000
H    -3.379000000     1.534000000    -4.410000000
O    -6.109000000     3.357000000     2.167000000
H    -5.529000000     3.299000000     2.926000000
H    -6.961000000     3.591000000     2.534000000
O     5.513000000     1.491000000    -4.167000000
H     5.067000000     1.789000000    -3.373000000
H     6.439000000     1.672000000    -4.004000000
O     1.220000000     2.638000000     2.612000000
H     1.655000000     1.791000000     2.711000000
H     0.680000000     2.540000000     1.828000000
O     1.806000000    -3.981000000     3.825000000
H     1.270000000    -3.277000000     4.190000000
H     2.461000000    -4.158000000     4.500000000
O    -1.146000000     2.174000000    -6.798000000
H    -0.848000000     2.343000000    -5.904000000
H    -0.670000000     2.810000000    -7.333000000
O     7.296000000    -0.360000000     1.810000000
H     6.485000000    -0.851000000     1.945000000
H     7.226000000    -0.024000000     0.917000000
O     3.708000000    -4.439000000    -0.305000000
H     3.609000000    -5.215000000    -0.857000000
H     2.817000000    -4.228000000    -0.028000000
O     0.717000000    -1.516000000     4.553000000
H     0.531000000    -1.248000000     5.453000000
H     1.421000000    -0.933000000     4.271000000
O     2.105000000     0.122000000    -5.196000000
H     2.910000000    -0.108000000    -4.733000000
H     2.402000000     0.463000000    -6.040000000
O    -4.294000000     2.187000000     4.273000000
H    -3.357000000     2.214000000     4.471000000
H    -4.572000000     1.315000000     4.551000000
O     4.115000000     2.156000000    -2.112000000
H     3.190000000     2.399000000    -2.071000000
H     4.220000000     1.497000000    -1.425000000
O    -7.361000000     2.372000000    -0.105000000
H    -6.848000000     1.762000000    -0.635000000
H    -6.894000000     2.417000000     0.729000000
O     6.351000000     0.259000000    -0.943000000
H     5.450000000    -0.056000000    -0.874000000
H     6.681000000    -0.135000000    -1.750000000
O    -6.814000000    -1.993000000    -3.136000000
H    -5.982000000    -1.526000000    -3.054000000
H    -7.396000000    -1.370000000    -3.570000000
O     0.889000000    -2.709000000    -3.931000000
H     0.036000000    -2.625000000    -3.504000000
H     1.517000000    -2.729000000    -3.210000000
O    -2.377000000    -0.295000000     5.011000000
H    -1.757000000     0.428000000     5.107000000
H    -1.838000000    -1.083000000     5.080000000
O    -1.045000000    -3.208000000    -0.731000000
H    -1.087000000    -2.616000000    -1.482000000
H    -1.913000000    -3.152000000    -0.332000000
O    -3.011000000     4.356000000    -3.955000000
H    -2.635000000     3.497000000    -4.149000000
H    -2.473000000     4.970000000    -4.454000000
O     6.464000000    -3.304000000     0.705000000
H     5.877000000    -3.785000000     0.121000000
H     6.824000000    -3.973000000     1.287000000
O     0.598000000     2.433000000    -4.563000000
H     0.537000000     2.389000000    -3.609000000
H     1.161000000     1.697000000    -4.802000000
O    -4.210000000    -2.357000000    -4.948000000
H    -4.053000000    -1.932000000    -4.105000000
H    -4.124000000    -3.293000000    -4.765000000
O     3.881000000     4.846000000     1.395000000
H     3.851000000     3.966000000     1.020000000
H     3.004000000     5.199000000     1.246000000
O     5.100000000    -1.909000000     2.554000000
H     4.691000000    -1.112000000     2.216000000
H     5.402000000    -2.374000000     1.774000000
O     2.991000000     0.508000000     3.879000000
H     3.257000000     1.413000000     4.045000000
H     3.529000000     0.233000000     3.136000000
O    -5.131000000    -0.312000000     4.971000000
H    -5.134000000    -0.949000000     5.686000000
H    -4.279000000    -0.429000000     4.551000000
O    -0.658000000     1.853000000     4.549000000
H    -0.195000000     1.884000000     3.712000000
H    -0.842000000     2.770000000     4.755000000
O     7.326000000     2.409000000    -2.089000000
H     6.865000000     1.662000000    -1.706000000
H     7.428000000     3.025000000    -1.363000000
O    -0.430000000     3.401000000     0.118000000
H    -0.463000000     2.448000000     0.204000000
H    -1.318000000     3.648000000    -0.139000000
O     1.462000000    -3.511000000     0.863000000
H     1.555000000    -3.545000000     1.815000000
H     0.829000000    -2.809000000     0.709000000
O     7.030000000    -0.195000000     5.006000000
H     7.010000000    -0.327000000     4.058000000
H     7.960000000    -0.130000000     5.219000000
O    -4.524000000    -1.039000000    -2.300000000
H    -4.453000000    -1.549000000    -1.492000000
H    -4.247000000    -0.158000000    -2.051000000
O    -5.394000000    -2.095000000     2.043000000
H    -6.306000000    -1.877000000     2.239000000
H    -5.354000000    -3.048000000     2.121000000
O    -0.513000000    -0.491000000    -5.285000000
H     0.403000000    -0.430000000    -5.014000000
H    -0.478000000    -0.867000000    -6.165000000
O    -1.919000000    -1.602000000    -3.230000000
H    -1.343000000    -1.328000000    -3.944000000
H    -2.675000000    -1.018000000    -3.294000000
O     1.710000000     3.215000000    -1.721000000
H     2.033000000     4.106000000    -1.856000000
H     0.974000000     3.316000000    -1.117000000
O     5.219000000     2.999000000     3.503000000
H     5.058000000     3.249000000     2.593000000
H     5.862000000     3.635000000     3.816000000
O    -2.398000000     5.292000000     1.933000000
H    -2.353000000     6.018000000     1.310000000
H    -3.112000000     4.742000000     1.609000000
O    -5.211000000     1.381000000    -4.033000000
H    -6.021000000     0.892000000    -3.891000000
H    -4.953000000     1.678000000    -3.161000000
O    -2.860000000     4.545000000    -1.108000000
H    -2.550000000     5.426000000    -0.899000000
H    -2.895000000     4.523000000    -2.064000000
O     3.529000000    -0.597000000     6.382000000
H     3.968000000    -1.332000000     5.953000000
H     3.268000000    -0.021000000     5.664000000
O    -3.807000000    -2.799000000    -0.158000000
H    -4.244000000    -3.649000000    -0.213000000
H    -4.413000000    -2.250000000     0.340000000
O     6.959000000    -1.111000000    -3.199000000
H     7.718000000    -1.083000000    -3.781000000
H     6.673000000    -2.024000000    -3.222000000
O     4.598000000     2.139000000     0.742000000
H     5.266000000     1.756000000     0.174000000
H     4.102000000     1.387000000     1.068000000
O     3.247000000    -2.432000000    -2.163000000
H     3.533000000    -1.633000000    -1.722000000
H     3.692000000    -3.137000000    -1.693000000
