158
-3016.29964
C    -0.319000000    -1.434000000    -0.117000000
H    -0.651000000    -2.465000000    -0.198000000
C    -1.222000000    -0.398000000     0.045000000
H    -2.274000000    -0.669000000     0.078000000
C    -0.795000000     0.927000000     0.083000000
H    -1.498000000     1.714000000     0.058000000
C     0.535000000     1.239000000    -0.090000000
H     0.800000000     2.279000000    -0.265000000
C     1.470000000     0.197000000    -0.041000000
H     2.530000000     0.432000000    -0.099000000
C     1.054000000    -1.155000000    -0.069000000
C     2.119000000    -2.223000000    -0.177000000
O     1.690000000    -3.361000000    -0.216000000
O     3.289000000    -2.036000000    -0.301000000
O     5.082000000    -1.798000000     1.548000000
H     4.571000000    -2.070000000     0.785000000
H     4.460000000    -1.317000000     2.093000000
O    -1.554000000    -7.003000000     0.677000000
H    -1.829000000    -6.433000000     1.395000000
H    -1.045000000    -6.434000000     0.101000000
O     4.335000000    -4.214000000    -3.310000000
H     3.393000000    -4.142000000    -3.466000000
H     4.410000000    -4.396000000    -2.373000000
O    -4.251000000    -4.246000000     1.151000000
H    -5.007000000    -3.678000000     1.001000000
H    -3.825000000    -4.309000000     0.296000000
O    -0.861000000    -0.037000000    -3.305000000
H    -0.358000000     0.770000000    -3.200000000
H    -0.859000000    -0.436000000    -2.435000000
O    -3.179000000     3.706000000    -4.014000000
H    -2.601000000     3.603000000    -4.770000000
H    -3.891000000     3.085000000    -4.169000000
O    -4.338000000     4.400000000     3.841000000
H    -4.462000000     4.534000000     4.781000000
H    -4.571000000     3.482000000     3.698000000
O    -7.439000000    -0.170000000     0.879000000
H    -8.190000000    -0.481000000     0.373000000
H    -7.014000000     0.469000000     0.308000000
O     4.821000000    -1.646000000    -2.291000000
H     4.518000000    -2.334000000    -2.882000000
H     4.285000000    -1.752000000    -1.505000000
O    -3.440000000    -4.872000000    -1.307000000
H    -2.943000000    -4.817000000    -2.123000000
H    -4.007000000    -5.635000000    -1.423000000
O     1.512000000     2.409000000     3.374000000
H     1.740000000     3.298000000     3.101000000
H     2.187000000     2.174000000     4.011000000
O     4.678000000    -3.609000000     4.028000000
H     4.538000000    -2.904000000     3.395000000
H     3.892000000    -3.600000000     4.575000000
O     2.579000000     4.661000000     2.623000000
H     2.811000000     5.209000000     1.873000000
H     2.166000000     5.265000000     3.241000000
O     0.301000000    -5.501000000    -0.842000000
H     1.048000000    -6.054000000    -1.068000000
H     0.690000000    -4.731000000    -0.427000000
O    -0.463000000     6.890000000    -3.115000000
H    -0.510000000     5.945000000    -2.966000000
H    -1.232000000     7.087000000    -3.648000000
O     2.376000000    -7.200000000    -1.115000000
H     2.002000000    -7.943000000    -0.641000000
H     3.283000000    -7.455000000    -1.283000000
O     1.601000000    -3.773000000    -3.215000000
H     1.029000000    -3.790000000    -3.982000000
H     1.018000000    -3.566000000    -2.485000000
O    -3.612000000     6.288000000    -3.338000000
H    -3.493000000     5.338000000    -3.325000000
H    -3.943000000     6.476000000    -4.216000000
O    -3.702000000    -0.075000000    -3.615000000
H    -3.803000000     0.385000000    -2.781000000
H    -2.755000000    -0.142000000    -3.738000000
O    -4.351000000     0.654000000    -1.082000000
H    -4.366000000     1.209000000    -0.303000000
H    -5.272000000     0.456000000    -1.253000000
O    -2.127000000     4.526000000     0.408000000
H    -3.029000000     4.247000000     0.247000000
H    -2.124000000     4.809000000     1.323000000
O     4.821000000     0.802000000    -3.593000000
H     4.273000000     1.408000000    -3.094000000
H     5.138000000     0.175000000    -2.942000000
O    -6.424000000     3.768000000     1.618000000
H    -6.641000000     3.583000000     2.532000000
H    -6.213000000     4.702000000     1.607000000
O     2.778000000    -0.530000000     3.025000000
H     2.400000000     0.144000000     2.460000000
H     2.073000000    -0.759000000     3.631000000
O     0.704000000     2.305000000    -3.165000000
H     0.163000000     3.004000000    -2.799000000
H     1.595000000     2.525000000    -2.894000000
O    -5.366000000    -1.975000000     0.492000000
H    -5.979000000    -1.328000000     0.842000000
H    -4.815000000    -1.480000000    -0.113000000
O     1.725000000    -4.791000000     1.981000000
H     2.614000000    -5.109000000     2.139000000
H     1.800000000    -4.255000000     1.192000000
O    -2.772000000    -5.751000000     2.817000000
H    -3.333000000    -5.987000000     3.556000000
H    -3.265000000    -5.080000000     2.346000000
O    -0.886000000     4.283000000    -2.169000000
H    -1.676000000     3.981000000    -2.617000000
H    -1.096000000     4.212000000    -1.238000000
O    -4.696000000     1.549000000     1.421000000
H    -4.312000000     1.520000000     2.297000000
H    -5.386000000     2.210000000     1.485000000
O    -3.389000000    -2.256000000     3.327000000
H    -3.864000000    -2.993000000     3.710000000
H    -3.579000000    -2.309000000     2.390000000
O     5.354000000     3.341000000     2.354000000
H     4.430000000     3.568000000     2.250000000
H     5.667000000     3.924000000     3.045000000
O    -0.129000000    -6.239000000     3.589000000
H    -1.012000000    -5.942000000     3.366000000
H     0.450000000    -5.661000000     3.091000000
O    -0.925000000     5.530000000     3.771000000
H    -1.672000000     6.061000000     3.498000000
H    -1.239000000     5.048000000     4.536000000
O    -0.580000000     7.552000000     1.629000000
H    -0.366000000     7.110000000     0.807000000
H    -1.145000000     6.934000000     2.093000000
O    -0.613000000    -6.566000000    -3.211000000
H    -0.384000000    -6.113000000    -2.400000000
H    -0.215000000    -6.037000000    -3.902000000
O     3.243000000     2.577000000    -2.210000000
H     3.828000000     2.146000000    -1.586000000
H     3.420000000     3.511000000    -2.098000000
O     0.754000000    -1.985000000     4.109000000
H     0.886000000    -2.378000000     3.246000000
H    -0.144000000    -1.653000000     4.086000000
O     4.322000000    -5.738000000     2.276000000
H     4.697000000    -5.399000000     1.463000000
H     4.477000000    -5.044000000     2.918000000
O    -4.957000000     3.917000000    -0.998000000
H    -5.221000000     3.606000000    -0.132000000
H    -5.669000000     3.646000000    -1.577000000
O    -1.863000000    -0.941000000     5.337000000
H    -1.979000000    -0.040000000     5.639000000
H    -2.366000000    -0.987000000     4.524000000
O     7.373000000    -2.937000000     2.343000000
H     6.723000000    -2.331000000     1.988000000
H     7.158000000    -3.780000000     1.943000000
O    -1.699000000     1.737000000     5.391000000
H    -0.808000000     1.845000000     5.724000000
H    -1.588000000     1.596000000     4.451000000
O     5.496000000     2.433000000    -0.529000000
H     6.252000000     2.688000000    -1.058000000
H     5.807000000     2.485000000     0.375000000
O    -4.120000000     1.717000000     4.157000000
H    -4.562000000     0.951000000     4.523000000
H    -3.310000000     1.791000000     4.662000000
O     6.684000000    -5.055000000     0.635000000
H     5.971000000    -4.822000000     0.041000000
H     7.425000000    -5.243000000     0.058000000
O    -1.252000000     0.907000000     2.914000000
H    -1.549000000     0.775000000     2.014000000
H    -0.432000000     1.393000000     2.828000000
O     4.173000000    -4.593000000    -0.442000000
H     4.060000000    -3.645000000    -0.364000000
H     3.284000000    -4.932000000    -0.544000000
