158
-3045.93266
C    -0.388000000    -1.402000000     0.036000000
H    -0.795000000    -2.405000000    -0.071000000
C    -1.268000000    -0.361000000    -0.162000000
H    -2.335000000    -0.527000000    -0.286000000
C    -0.761000000     0.920000000    -0.196000000
H    -1.411000000     1.851000000    -0.277000000
C     0.556000000     1.152000000     0.055000000
H     0.968000000     2.158000000     0.037000000
C     1.446000000     0.143000000     0.322000000
H     2.504000000     0.311000000     0.506000000
C     0.976000000    -1.195000000     0.257000000
C     1.847000000    -2.355000000     0.598000000
O     1.442000000    -3.490000000     0.278000000
O     2.946000000    -2.178000000     1.160000000
O    -6.519000000     3.722000000    -1.144000000
H    -6.905000000     4.141000000    -0.374000000
H    -5.737000000     4.241000000    -1.333000000
O     5.745000000    -6.333000000     2.489000000
H     5.132000000    -5.935000000     1.871000000
H     5.835000000    -5.686000000     3.189000000
O     3.354000000    -2.512000000     3.714000000
H     3.372000000    -2.396000000     2.764000000
H     2.865000000    -1.756000000     4.039000000
O    -0.130000000     2.409000000    -3.587000000
H     0.302000000     2.920000000    -2.903000000
H    -1.060000000     2.445000000    -3.362000000
O    -0.697000000    -7.759000000     2.274000000
H    -1.174000000    -7.022000000     2.655000000
H    -0.089000000    -7.355000000     1.654000000
O     3.618000000    -0.129000000    -3.633000000
H     3.752000000    -0.797000000    -4.306000000
H     2.676000000     0.038000000    -3.645000000
O     4.482000000    -2.982000000    -1.783000000
H     3.664000000    -2.665000000    -2.165000000
H     4.208000000    -3.487000000    -1.017000000
O    -3.528000000    -3.326000000     1.343000000
H    -4.340000000    -2.826000000     1.429000000
H    -3.555000000    -3.675000000     0.452000000
O     5.440000000    -0.309000000    -1.535000000
H     4.922000000    -0.205000000    -2.333000000
H     5.355000000    -1.236000000    -1.313000000
O     0.281000000    -0.185000000    -2.699000000
H    -0.110000000     0.199000000    -1.914000000
H     0.447000000     0.562000000    -3.274000000
O     2.566000000     5.129000000     0.963000000
H     3.286000000     4.790000000     1.494000000
H     2.179000000     5.822000000     1.499000000
O    -3.626000000     4.075000000    -4.774000000
H    -3.616000000     5.018000000    -4.937000000
H    -3.214000000     3.976000000    -3.916000000
O     4.924000000    -0.744000000     1.983000000
H     5.684000000    -1.188000000     1.607000000
H     4.175000000    -1.261000000     1.689000000
O    -4.520000000    -2.858000000    -1.728000000
H    -4.943000000    -2.038000000    -1.473000000
H    -3.842000000    -2.595000000    -2.350000000
O     1.323000000     3.242000000     3.322000000
H     1.112000000     4.051000000     2.857000000
H     1.899000000     2.765000000     2.724000000
O    -2.229000000     5.442000000     0.911000000
H    -2.281000000     4.606000000     1.374000000
H    -1.365000000     5.787000000     1.136000000
O    -1.734000000     1.031000000    -5.889000000
H    -1.941000000     0.781000000    -4.989000000
H    -1.780000000     1.987000000    -5.889000000
O     3.363000000     3.678000000    -3.612000000
H     3.334000000     4.347000000    -4.295000000
H     3.335000000     2.848000000    -4.088000000
O     0.627000000    -6.250000000     0.595000000
H     1.451000000    -6.551000000     0.213000000
H     0.706000000    -5.296000000     0.613000000
O    -0.866000000     7.456000000    -1.524000000
H    -1.068000000     6.647000000    -1.055000000
H    -1.704000000     7.733000000    -1.896000000
O    -6.744000000    -0.383000000    -1.487000000
H    -6.958000000     0.349000000    -2.065000000
H    -7.278000000    -1.109000000    -1.810000000
O     3.828000000    -6.670000000    -0.587000000
H     4.701000000    -6.439000000    -0.902000000
H     3.718000000    -7.588000000    -0.837000000
O     1.756000000    -2.494000000    -2.628000000
H     1.454000000    -1.635000000    -2.924000000
H     1.263000000    -2.656000000    -1.823000000
O    -2.603000000     1.384000000    -2.781000000
H    -3.347000000     1.404000000    -2.180000000
H    -2.649000000     0.520000000    -3.190000000
O    -4.433000000     1.845000000    -0.660000000
H    -4.386000000     1.517000000     0.238000000
H    -5.194000000     2.426000000    -0.663000000
O    -4.665000000     6.843000000     0.346000000
H    -3.793000000     6.541000000     0.600000000
H    -4.867000000     7.543000000     0.967000000
O     4.154000000     3.870000000    -1.055000000
H     3.501000000     4.409000000    -0.608000000
H     3.850000000     3.828000000    -1.961000000
O     1.879000000    -0.217000000     4.318000000
H     2.250000000     0.490000000     3.791000000
H     1.005000000    -0.354000000     3.954000000
O    -2.012000000     3.970000000    -1.680000000
H    -2.080000000     3.019000000    -1.761000000
H    -1.415000000     4.105000000    -0.944000000
O    -5.911000000    -1.858000000     1.130000000
H    -6.717000000    -1.725000000     1.629000000
H    -5.886000000    -1.125000000     0.515000000
O     1.066000000    -3.845000000     3.774000000
H     1.919000000    -3.420000000     3.688000000
H     0.872000000    -4.174000000     2.896000000
O    -2.739000000    -5.856000000     2.666000000
H    -2.879000000    -5.552000000     3.563000000
H    -3.019000000    -5.123000000     2.118000000
O    -4.292000000     5.231000000    -1.713000000
H    -3.595000000     4.610000000    -1.502000000
H    -4.254000000     5.880000000    -1.010000000
O    -4.855000000     1.010000000     1.800000000
H    -5.092000000     1.926000000     1.940000000
H    -5.653000000     0.522000000     2.003000000
O    -1.283000000    -6.441000000    -2.655000000
H    -0.653000000    -5.920000000    -3.153000000
H    -1.834000000    -5.794000000    -2.214000000
O    -2.895000000    -1.522000000     3.632000000
H    -3.809000000    -1.422000000     3.898000000
H    -2.939000000    -1.727000000     2.698000000
O    -2.397000000     2.896000000     1.992000000
H    -3.097000000     2.242000000     1.983000000
H    -2.052000000     2.865000000     2.884000000
O     0.591000000    -4.345000000    -4.010000000
H     0.457000000    -3.701000000    -4.706000000
H     1.116000000    -3.884000000    -3.356000000
O     0.459000000     4.689000000    -0.842000000
H     1.288000000     4.735000000    -0.364000000
H     0.650000000     5.088000000    -1.691000000
O    -0.552000000     0.106000000     3.122000000
H    -0.529000000     0.205000000     2.170000000
H    -1.362000000    -0.375000000     3.293000000
O     4.302000000    -4.454000000     5.419000000
H     4.072000000    -3.801000000     4.759000000
H     5.206000000    -4.693000000     5.215000000
O     5.502000000     1.726000000     0.197000000
H     5.119000000     2.354000000    -0.415000000
H     5.349000000     0.873000000    -0.209000000
O     3.600000000     1.564000000     2.754000000
H     4.166000000     1.834000000     3.476000000
H     4.169000000     1.050000000     2.182000000
O     6.544000000    -2.729000000     0.604000000
H     5.807000000    -3.339000000     0.570000000
H     7.292000000    -3.238000000     0.291000000
O    -1.040000000     2.550000000     4.579000000
H    -1.062000000     1.641000000     4.280000000
H    -0.186000000     2.875000000     4.295000000
O     1.209000000     0.996000000    -5.429000000
H     0.638000000     1.529000000    -4.876000000
H     0.839000000     1.083000000    -6.308000000
O     4.498000000    -4.455000000     0.754000000
H     3.740000000    -3.899000000     0.935000000
H     4.147000000    -5.173000000     0.227000000
O    -2.181000000    -1.531000000    -3.193000000
H    -2.194000000    -2.374000000    -3.647000000
H    -1.255000000    -1.290000000    -3.162000000
