158
-3020.16808
C    -0.526000000    -1.346000000    -0.197000000
H    -1.081000000    -2.278000000    -0.256000000
C    -1.342000000    -0.245000000     0.049000000
H    -2.393000000    -0.311000000     0.318000000
C    -0.685000000     1.016000000     0.133000000
H    -1.203000000     1.883000000     0.488000000
C     0.699000000     1.086000000     0.038000000
H     1.253000000     2.018000000     0.104000000
C     1.495000000    -0.026000000    -0.174000000
H     2.576000000     0.043000000    -0.265000000
C     0.883000000    -1.288000000    -0.333000000
C     1.592000000    -2.615000000    -0.565000000
O     0.890000000    -3.655000000    -0.664000000
O     2.828000000    -2.743000000    -0.471000000
O    -6.583000000     2.929000000    -2.336000000
H    -6.930000000     3.298000000    -3.148000000
H    -5.992000000     3.603000000    -1.999000000
O     5.652000000    -7.288000000    -0.142000000
H     5.526000000    -6.351000000    -0.294000000
H     4.921000000    -7.539000000     0.423000000
O     4.370000000    -2.866000000     1.851000000
H     4.014000000    -2.754000000     0.970000000
H     3.600000000    -2.901000000     2.418000000
O     2.749000000    -4.151000000     3.773000000
H     2.011000000    -4.758000000     3.827000000
H     3.386000000    -4.493000000     4.400000000
O    -1.257000000    -5.134000000     0.776000000
H    -0.597000000    -4.829000000     0.154000000
H    -1.897000000    -4.423000000     0.815000000
O     3.166000000    -3.101000000    -4.403000000
H     2.215000000    -3.053000000    -4.499000000
H     3.444000000    -3.718000000    -5.080000000
O    -3.843000000    -3.145000000     1.221000000
H    -4.325000000    -2.400000000     0.860000000
H    -4.118000000    -3.889000000     0.686000000
O    -0.715000000     0.487000000    -2.804000000
H     0.080000000     0.872000000    -3.173000000
H    -0.518000000     0.377000000    -1.874000000
O    -1.936000000     5.306000000     4.556000000
H    -1.375000000     5.156000000     3.795000000
H    -2.783000000     4.937000000     4.305000000
O     3.986000000    -1.506000000    -2.459000000
H     3.492000000    -2.047000000    -3.075000000
H     3.835000000    -1.915000000    -1.606000000
O    -4.292000000    -5.067000000    -0.758000000
H    -4.053000000    -4.578000000    -1.545000000
H    -4.774000000    -5.827000000    -1.084000000
O     2.678000000     2.276000000     2.706000000
H     2.600000000     2.904000000     1.988000000
H     2.132000000     2.640000000     3.403000000
O     6.649000000    -1.652000000     3.137000000
H     6.188000000    -1.911000000     2.339000000
H     6.059000000    -1.906000000     3.847000000
O     2.664000000     4.362000000     0.982000000
H     2.494000000     5.304000000     1.017000000
H     3.504000000     4.254000000     1.430000000
O     1.151000000    -7.934000000     2.604000000
H     1.261000000    -7.156000000     2.058000000
H     0.242000000    -7.892000000     2.902000000
O     0.350000000    -5.426000000    -2.317000000
H     1.083000000    -5.981000000    -2.052000000
H     0.473000000    -4.615000000    -1.824000000
O     2.450000000    -6.928000000    -1.861000000
H     2.427000000    -7.153000000    -0.931000000
H     2.933000000    -7.646000000    -2.270000000
O     0.401000000    -3.437000000    -4.277000000
H    -0.498000000    -3.110000000    -4.278000000
H     0.380000000    -4.193000000    -3.691000000
O    -3.052000000     1.393000000    -2.096000000
H    -2.913000000     1.623000000    -1.177000000
H    -2.210000000     1.041000000    -2.385000000
O    -3.719000000     2.848000000     0.456000000
H    -3.831000000     3.602000000    -0.123000000
H    -4.611000000     2.568000000     0.660000000
O    -0.582000000     4.412000000     2.318000000
H     0.321000000     4.665000000     2.129000000
H    -1.018000000     4.427000000     1.466000000
O     4.051000000     1.086000000    -2.615000000
H     4.740000000     1.553000000    -2.141000000
H     4.287000000     0.162000000    -2.530000000
O     2.576000000    -0.272000000     3.030000000
H     2.639000000     0.683000000     3.014000000
H     1.645000000    -0.452000000     2.897000000
O     1.420000000     2.108000000    -3.510000000
H     2.370000000     2.178000000    -3.417000000
H     1.286000000     1.863000000    -4.426000000
O    -5.347000000    -0.827000000     0.370000000
H    -5.496000000    -0.456000000     1.240000000
H    -5.968000000    -0.368000000    -0.195000000
O     1.725000000    -5.417000000     1.389000000
H     2.356000000    -4.832000000     1.808000000
H     1.444000000    -4.944000000     0.606000000
O    -2.836000000    -4.227000000     3.560000000
H    -3.560000000    -4.267000000     4.185000000
H    -3.147000000    -3.640000000     2.871000000
O     1.736000000     6.402000000     3.378000000
H     2.172000000     6.692000000     2.577000000
H     0.828000000     6.688000000     3.274000000
O    -5.185000000     4.846000000    -1.058000000
H    -5.761000000     5.204000000    -0.383000000
H    -4.877000000     5.613000000    -1.542000000
O    -1.278000000    -7.209000000    -1.117000000
H    -0.895000000    -6.680000000    -1.817000000
H    -1.227000000    -6.651000000    -0.341000000
O    -4.688000000    -1.024000000     3.988000000
H    -5.522000000    -1.389000000     3.691000000
H    -4.224000000    -1.767000000     4.373000000
O     5.118000000     0.625000000     1.895000000
H     4.329000000     0.212000000     2.247000000
H     4.881000000     1.548000000     1.800000000
O    -0.197000000    -4.914000000     3.667000000
H    -1.051000000    -4.492000000     3.757000000
H    -0.212000000    -5.300000000     2.791000000
O     3.912000000     4.255000000    -1.266000000
H     4.278000000     3.421000000    -0.969000000
H     3.085000000     4.336000000    -0.792000000
O    -0.332000000    -0.715000000     2.737000000
H    -1.027000000    -0.122000000     3.022000000
H    -0.376000000    -0.693000000     1.781000000
O     6.329000000    -4.812000000     1.977000000
H     6.708000000    -4.465000000     1.170000000
H     5.606000000    -4.218000000     2.176000000
O    -0.496000000     3.720000000    -2.432000000
H     0.320000000     3.301000000    -2.706000000
H    -1.155000000     3.030000000    -2.503000000
O    -4.361000000     2.855000000    -4.578000000
H    -4.116000000     2.212000000    -3.912000000
H    -5.044000000     2.421000000    -5.089000000
O     7.715000000     0.500000000     1.170000000
H     6.836000000     0.193000000     1.394000000
H     7.664000000     0.713000000     0.239000000
O    -1.431000000     0.850000000     5.577000000
H    -1.185000000     1.620000000     6.090000000
H    -1.817000000     1.209000000     4.778000000
O     5.608000000     2.060000000    -0.688000000
H     6.239000000     2.653000000    -0.280000000
H     5.500000000     1.351000000    -0.054000000
O     7.181000000    -4.053000000    -0.953000000
H     7.866000000    -4.614000000    -1.317000000
H     6.370000000    -4.380000000    -1.344000000
O    -4.309000000     4.149000000     4.248000000
H    -5.121000000     3.826000000     3.858000000
H    -3.934000000     3.386000000     4.688000000
O     6.609000000    -1.401000000    -1.440000000
H     5.822000000    -1.600000000    -1.948000000
H     6.926000000    -2.254000000    -1.144000000
O    -2.326000000     2.185000000     3.394000000
H    -2.809000000     2.380000000     2.591000000
H    -1.531000000     2.715000000     3.331000000
O    -1.057000000     5.472000000    -0.204000000
H    -1.580000000     6.026000000    -0.785000000
H    -0.568000000     4.900000000    -0.796000000
O     4.086000000    -4.786000000    -0.911000000
H     3.645000000    -3.955000000    -0.736000000
H     3.461000000    -5.283000000    -1.437000000
O    -4.662000000    -1.376000000    -2.356000000
H    -4.065000000    -0.628000000    -2.320000000
H    -4.701000000    -1.694000000    -1.454000000
