158
-3054.41477
C     0.116000000    -0.392000000     1.454000000
H     0.260000000    -0.499000000     2.526000000
C    -0.779000000     0.597000000     0.936000000
H    -1.506000000     1.079000000     1.585000000
C    -0.885000000     0.718000000    -0.457000000
H    -1.588000000     1.436000000    -0.772000000
C    -0.073000000     0.031000000    -1.380000000
H    -0.192000000     0.266000000    -2.434000000
C     0.941000000    -0.887000000    -0.853000000
H     1.643000000    -1.432000000    -1.479000000
C     1.019000000    -1.064000000     0.559000000
C     2.277000000    -1.669000000     1.145000000
O     2.374000000    -1.719000000     2.333000000
O     2.958000000    -2.354000000     0.459000000
O    -0.356000000     6.188000000    -2.770000000
H    -0.806000000     7.007000000    -2.978000000
H    -0.670000000     5.568000000    -3.428000000
O     4.989000000    -3.697000000     1.381000000
H     5.018000000    -4.390000000     0.720000000
H     4.150000000    -3.260000000     1.232000000
O     5.195000000     1.119000000    -2.524000000
H     4.363000000     0.901000000    -2.944000000
H     5.859000000     0.724000000    -3.089000000
O     4.548000000    -5.450000000    -0.593000000
H     4.530000000    -5.040000000    -1.458000000
H     3.640000000    -5.702000000    -0.428000000
O    -2.304000000    -1.574000000    -4.293000000
H    -1.915000000    -2.416000000    -4.528000000
H    -2.605000000    -1.692000000    -3.392000000
O     2.744000000     1.541000000    -4.964000000
H     3.465000000     1.487000000    -5.591000000
H     2.696000000     0.667000000    -4.578000000
O    -2.006000000     5.265000000    -5.151000000
H    -2.287000000     5.247000000    -6.066000000
H    -1.487000000     4.468000000    -5.044000000
O    -3.313000000     2.173000000     5.260000000
H    -3.465000000     1.323000000     4.847000000
H    -4.188000000     2.487000000     5.488000000
O    -0.810000000    -3.557000000     4.332000000
H    -0.079000000    -2.961000000     4.169000000
H    -0.690000000    -3.840000000     5.238000000
O     1.272000000    -1.768000000     4.677000000
H     1.635000000    -1.657000000     3.799000000
H     1.674000000    -1.069000000     5.193000000
O     1.908000000     3.332000000     3.890000000
H     1.109000000     3.008000000     4.305000000
H     2.074000000     2.716000000     3.176000000
O     1.510000000     3.300000000    -2.949000000
H     2.075000000     3.705000000    -2.290000000
H     2.115000000     2.856000000    -3.543000000
O    -1.460000000    -4.346000000     1.099000000
H    -1.869000000    -3.559000000     0.740000000
H    -1.021000000    -4.045000000     1.895000000
O    -4.501000000    -1.086000000     2.261000000
H    -4.556000000    -0.176000000     1.968000000
H    -3.947000000    -1.514000000     1.609000000
O     1.991000000    -5.868000000    -0.057000000
H     1.151000000    -6.271000000    -0.276000000
H     1.771000000    -5.186000000     0.577000000
O    -0.496000000     2.971000000    -5.445000000
H     0.113000000     2.860000000    -4.715000000
H    -0.734000000     2.079000000    -5.697000000
O    -3.282000000     3.345000000    -1.042000000
H    -2.388000000     3.321000000    -1.384000000
H    -3.174000000     3.464000000    -0.099000000
O    -4.313000000     1.455000000     0.977000000
H    -4.215000000     2.316000000     1.382000000
H    -4.013000000     1.579000000     0.076000000
O     2.038000000     1.965000000     1.492000000
H     1.282000000     1.653000000     0.994000000
H     2.794000000     1.725000000     0.956000000
O     2.145000000    -3.727000000    -5.165000000
H     2.206000000    -4.615000000    -4.813000000
H     2.304000000    -3.830000000    -6.103000000
O     4.960000000    -0.472000000     1.436000000
H     4.663000000    -1.371000000     1.292000000
H     5.298000000    -0.472000000     2.331000000
O    -3.896000000    -1.480000000    -1.664000000
H    -4.821000000    -1.650000000    -1.840000000
H    -3.753000000    -0.586000000    -1.976000000
O     4.151000000     1.691000000    -0.048000000
H     4.461000000     1.540000000    -0.941000000
H     4.433000000     0.915000000     0.438000000
O     2.884000000    -1.267000000    -3.883000000
H     2.644000000    -2.047000000    -4.383000000
H     3.352000000    -1.606000000    -3.120000000
O     3.319000000    -3.738000000     3.883000000
H     2.820000000    -2.993000000     3.547000000
H     4.122000000    -3.742000000     3.362000000
O    -6.154000000     4.374000000     0.744000000
H    -6.316000000     4.212000000    -0.185000000
H    -5.357000000     4.905000000     0.760000000
O     2.500000000     0.948000000     5.487000000
H     1.791000000     1.587000000     5.563000000
H     3.043000000     1.100000000     6.261000000
O    -2.928000000     3.914000000     1.747000000
H    -3.283000000     4.803000000     1.753000000
H    -1.981000000     4.034000000     1.819000000
O    -3.769000000     0.830000000    -3.182000000
H    -4.651000000     0.957000000    -3.532000000
H    -3.203000000     1.329000000    -3.772000000
O     3.924000000    -5.245000000    -3.279000000
H     4.568000000    -5.949000000    -3.202000000
H     3.120000000    -5.686000000    -3.554000000
O    -0.198000000     3.865000000    -1.121000000
H    -0.026000000     4.784000000    -1.327000000
H     0.256000000     3.377000000    -1.808000000
O     6.000000000    -3.531000000    -3.420000000
H     5.250000000    -4.115000000    -3.536000000
H     5.638000000    -2.763000000    -2.976000000
O    -1.269000000    -0.632000000     6.094000000
H    -2.139000000    -0.841000000     5.753000000
H    -0.741000000    -1.406000000     5.895000000
O    -0.370000000     1.878000000     5.039000000
H    -1.277000000     2.175000000     5.113000000
H    -0.370000000     1.007000000     5.434000000
O     2.458000000    -4.400000000     6.517000000
H     3.035000000    -3.855000000     7.052000000
H     2.856000000    -4.388000000     5.646000000
O    -7.095000000     0.361000000     0.107000000
H    -6.261000000     0.819000000    -0.002000000
H    -7.067000000     0.024000000     1.003000000
O    -3.709000000    -3.723000000     3.613000000
H    -2.781000000    -3.493000000     3.659000000
H    -4.043000000    -3.544000000     4.492000000
O    -2.372000000    -2.035000000     0.455000000
H    -1.454000000    -1.764000000     0.462000000
H    -2.720000000    -1.682000000    -0.363000000
O     4.641000000    -1.801000000    -1.658000000
H     4.051000000    -1.949000000    -0.919000000
H     5.265000000    -1.149000000    -1.340000000
O    -1.328000000     0.269000000    -5.971000000
H    -0.876000000    -0.341000000    -6.554000000
H    -1.679000000    -0.283000000    -5.272000000
O     2.410000000    -6.589000000     3.291000000
H     2.797000000    -5.728000000     3.449000000
H     3.148000000    -7.139000000     3.029000000
O    -3.644000000    -0.709000000     4.932000000
H    -3.925000000    -0.769000000     4.019000000
H    -4.138000000    -1.396000000     5.380000000
O     7.837000000    -2.974000000     1.231000000
H     6.930000000    -3.260000000     1.125000000
H     7.828000000    -2.439000000     2.025000000
O    -5.319000000     2.880000000    -4.847000000
H    -5.892000000     2.165000000    -5.123000000
H    -5.006000000     3.265000000    -5.666000000
O     4.281000000    -0.490000000     4.119000000
H     3.790000000    -1.001000000     3.475000000
H     3.629000000     0.090000000     4.512000000
O    -0.164000000     4.263000000     1.607000000
H     0.078000000     3.950000000     0.736000000
H     0.609000000     4.094000000     2.146000000
O    -0.880000000    -4.072000000    -4.900000000
H    -0.014000000    -3.731000000    -4.677000000
H    -0.858000000    -4.178000000    -5.851000000
O    -5.892000000     3.487000000    -2.024000000
H    -5.054000000     3.170000000    -1.687000000
H    -5.742000000     3.609000000    -2.961000000
