158
-3045.67433
C    -0.434000000    -0.102000000     1.464000000
H    -0.906000000    -0.160000000     2.442000000
C    -1.128000000     0.545000000     0.423000000
H    -2.096000000     1.029000000     0.517000000
C    -0.711000000     0.483000000    -0.877000000
H    -1.401000000     0.888000000    -1.621000000
C     0.497000000    -0.080000000    -1.159000000
H     0.823000000    -0.093000000    -2.196000000
C     1.322000000    -0.590000000    -0.159000000
H     2.316000000    -0.987000000    -0.349000000
C     0.856000000    -0.661000000     1.186000000
C     1.562000000    -1.374000000     2.276000000
O     1.210000000    -1.385000000     3.410000000
O     2.521000000    -2.057000000     1.842000000
O     5.017000000     1.526000000     2.985000000
H     4.534000000     2.330000000     2.793000000
H     5.875000000     1.828000000     3.285000000
O     1.686000000     4.096000000    -1.468000000
H     2.637000000     4.207000000    -1.462000000
H     1.366000000     4.810000000    -2.019000000
O     4.374000000    -3.246000000     0.196000000
H     4.284000000    -2.751000000    -0.618000000
H     3.725000000    -2.861000000     0.784000000
O    -2.581000000     5.349000000     1.538000000
H    -2.841000000     5.778000000     0.722000000
H    -1.666000000     5.106000000     1.399000000
O     3.226000000    -4.802000000    -2.243000000
H     2.454000000    -5.368000000    -2.259000000
H     3.158000000    -4.327000000    -1.415000000
O    -2.374000000    -2.520000000    -4.945000000
H    -1.945000000    -2.424000000    -4.095000000
H    -3.310000000    -2.488000000    -4.746000000
O     0.829000000     0.508000000    -4.357000000
H    -0.106000000     0.335000000    -4.467000000
H     1.241000000     0.097000000    -5.117000000
O    -0.967000000     2.626000000     5.328000000
H    -0.328000000     1.940000000     5.132000000
H    -1.763000000     2.152000000     5.566000000
O    -0.637000000    -2.960000000     4.745000000
H    -0.049000000    -2.458000000     4.182000000
H    -0.127000000    -3.124000000     5.539000000
O     5.858000000    -5.413000000     0.665000000
H     5.498000000    -5.911000000     1.399000000
H     5.489000000    -4.536000000     0.767000000
O     0.979000000     0.799000000     4.808000000
H     0.969000000    -0.093000000     4.459000000
H     1.808000000     0.861000000     5.282000000
O    -1.884000000     6.445000000    -3.638000000
H    -2.553000000     5.983000000    -4.143000000
H    -1.672000000     5.849000000    -2.920000000
O    -0.069000000     4.234000000     0.633000000
H     0.202000000     4.112000000     1.543000000
H     0.737000000     4.135000000     0.127000000
O     3.446000000     0.963000000    -2.881000000
H     2.559000000     1.240000000    -3.110000000
H     3.941000000     1.047000000    -3.696000000
O    -0.885000000    -4.557000000     1.967000000
H    -0.823000000    -4.095000000     2.803000000
H    -1.731000000    -4.290000000     1.607000000
O    -3.930000000    -0.945000000     1.875000000
H    -3.866000000    -0.146000000     2.398000000
H    -4.277000000    -0.652000000     1.032000000
O     0.227000000    -3.647000000    -0.767000000
H     0.768000000    -3.660000000     0.022000000
H    -0.393000000    -4.366000000    -0.644000000
O    -1.581000000     3.154000000    -6.447000000
H    -0.778000000     3.357000000    -5.967000000
H    -2.167000000     2.781000000    -5.788000000
O    -3.974000000     4.171000000    -3.074000000
H    -3.152000000     4.105000000    -2.587000000
H    -3.976000000     3.402000000    -3.644000000
O    -4.840000000     0.890000000    -0.408000000
H    -5.033000000     1.709000000     0.048000000
H    -4.991000000     1.088000000    -1.332000000
O     2.118000000     2.166000000     0.609000000
H     1.444000000     1.493000000     0.698000000
H     2.092000000     2.412000000    -0.316000000
O     5.067000000     0.566000000     0.474000000
H     4.217000000     0.244000000     0.173000000
H     4.926000000     0.787000000     1.395000000
O     5.424000000     2.428000000    -1.336000000
H     5.335000000     1.779000000    -2.034000000
H     5.294000000     1.930000000    -0.528000000
O     3.699000000    -3.109000000    -4.248000000
H     3.450000000    -3.886000000    -3.748000000
H     4.014000000    -2.490000000    -3.589000000
O     2.242000000    -4.022000000     3.887000000
H     2.141000000    -3.520000000     4.695000000
H     2.598000000    -3.394000000     3.258000000
O    -4.876000000     3.538000000     0.797000000
H    -4.064000000     4.016000000     0.961000000
H    -5.503000000     4.213000000     0.535000000
O     3.540000000     0.404000000     6.166000000
H     3.867000000    -0.481000000     6.009000000
H     4.303000000     0.968000000     6.036000000
O     5.210000000    -3.121000000     5.991000000
H     4.960000000    -2.606000000     5.224000000
H     5.935000000    -3.668000000     5.687000000
O    -3.026000000     6.441000000    -0.746000000
H    -3.557000000     7.218000000    -0.918000000
H    -2.532000000     6.304000000    -1.554000000
O    -2.791000000     1.863000000    -4.100000000
H    -3.528000000     1.382000000    -3.723000000
H    -2.536000000     1.349000000    -4.866000000
O     0.480000000     3.704000000    -4.789000000
H     1.270000000     3.945000000    -5.273000000
H     0.772000000     3.030000000    -4.175000000
O     7.259000000    -2.736000000     2.690000000
H     7.427000000    -3.581000000     3.108000000
H     6.448000000    -2.426000000     3.094000000
O    -4.378000000     1.300000000     3.163000000
H    -5.312000000     1.510000000     3.198000000
H    -4.056000000     1.772000000     2.395000000
O    -1.203000000    -0.356000000     7.056000000
H    -2.097000000    -0.016000000     7.092000000
H    -1.098000000    -0.662000000     6.155000000
O     1.042000000     3.814000000     3.183000000
H     0.653000000     3.578000000     4.026000000
H     1.661000000     3.108000000     2.999000000
O    -3.581000000    -2.333000000     4.220000000
H    -2.726000000    -2.754000000     4.127000000
H    -3.745000000    -1.934000000     3.366000000
O    -1.253000000    -2.137000000    -2.491000000
H    -1.322000000    -1.476000000    -1.802000000
H    -0.703000000    -2.822000000    -2.111000000
O     0.940000000    -3.349000000     6.719000000
H     1.021000000    -2.493000000     7.139000000
H     1.800000000    -3.754000000     6.833000000
O     4.754000000    -1.700000000    -2.071000000
H     5.667000000    -1.653000000    -2.357000000
H     4.432000000    -0.802000000    -2.150000000
O    -1.692000000    -0.050000000    -5.686000000
H    -1.908000000     0.093000000    -6.608000000
H    -1.911000000    -0.969000000    -5.529000000
O    -5.085000000    -2.386000000    -3.859000000
H    -5.554000000    -1.709000000    -4.348000000
H    -4.836000000    -1.959000000    -3.039000000
O     2.744000000    -0.996000000    -6.115000000
H     2.383000000    -1.596000000    -6.768000000
H     3.257000000    -1.557000000    -5.532000000
O     1.919000000    -6.813000000     3.632000000
H     1.861000000    -5.863000000     3.531000000
H     2.776000000    -7.041000000     3.272000000
O    -5.470000000     0.951000000    -3.329000000
H    -5.808000000     0.333000000    -3.978000000
H    -5.809000000     1.801000000    -3.609000000
O     4.537000000    -1.553000000     3.792000000
H     3.850000000    -1.421000000     3.139000000
H     5.034000000    -0.735000000     3.786000000
O    -1.299000000     4.501000000    -1.965000000
H    -0.850000000     3.862000000    -2.518000000
H    -1.090000000     4.233000000    -1.070000000
O    -3.175000000    -3.663000000     1.186000000
H    -3.515000000    -2.822000000     1.490000000
H    -3.690000000    -3.862000000     0.404000000
O    -3.239000000     1.255000000     5.945000000
H    -3.915000000     1.055000000     6.592000000
H    -3.717000000     1.350000000     5.121000000
