158
-2985.71746
C    -0.872000000    -0.475000000     1.031000000
H    -1.639000000    -0.648000000     1.781000000
C    -1.142000000     0.671000000     0.218000000
H    -2.005000000     1.302000000     0.420000000
C    -0.125000000     0.974000000    -0.743000000
H    -0.317000000     1.882000000    -1.315000000
C     0.964000000     0.187000000    -0.917000000
H     1.661000000     0.544000000    -1.672000000
C     1.083000000    -0.993000000    -0.178000000
H     1.933000000    -1.663000000    -0.283000000
C     0.245000000    -1.274000000     0.933000000
C     0.456000000    -2.314000000     1.973000000
O    -0.370000000    -2.553000000     2.827000000
O     1.334000000    -3.201000000     1.846000000
O     3.591000000    -3.902000000     4.897000000
H     3.873000000    -3.166000000     4.354000000
H     3.516000000    -4.635000000     4.286000000
O     3.983000000     2.359000000    -2.622000000
H     3.311000000     3.032000000    -2.510000000
H     3.822000000     2.004000000    -3.496000000
O     4.333000000    -3.982000000     0.939000000
H     4.140000000    -4.920000000     0.954000000
H     3.582000000    -3.576000000     1.371000000
O    -3.857000000    -1.789000000    -3.731000000
H    -3.634000000    -1.049000000    -3.166000000
H    -4.762000000    -1.625000000    -3.994000000
O    -1.145000000     1.679000000    -5.328000000
H    -1.657000000     1.497000000    -6.116000000
H    -0.453000000     1.017000000    -5.333000000
O     3.528000000    -6.284000000     3.589000000
H     3.298000000    -7.156000000     3.268000000
H     4.296000000    -6.428000000     4.142000000
O     2.939000000     4.422000000    -5.023000000
H     2.245000000     4.294000000    -5.669000000
H     3.615000000     3.791000000    -5.270000000
O     0.206000000     0.016000000     6.620000000
H     0.661000000    -0.815000000     6.482000000
H     0.392000000     0.525000000     5.831000000
O     6.452000000    -4.258000000     2.816000000
H     6.160000000    -5.013000000     3.327000000
H     5.685000000    -4.007000000     2.301000000
O     1.580000000    -5.183000000     0.274000000
H     1.386000000    -4.446000000     0.853000000
H     0.722000000    -5.547000000     0.054000000
O     1.101000000    -2.300000000     5.080000000
H     0.483000000    -2.404000000     4.357000000
H     1.765000000    -2.973000000     4.926000000
O    -0.100000000     6.093000000    -0.089000000
H    -0.828000000     5.500000000    -0.273000000
H    -0.290000000     6.875000000    -0.608000000
O     1.524000000     3.937000000    -2.796000000
H     1.998000000     4.437000000    -3.460000000
H     1.669000000     4.422000000    -1.983000000
O    -4.467000000    -4.303000000     4.831000000
H    -4.412000000    -4.704000000     5.698000000
H    -3.707000000    -3.722000000     4.787000000
O    -3.632000000     0.447000000     3.649000000
H    -4.133000000     1.233000000     3.872000000
H    -4.183000000    -0.016000000     3.018000000
O    -1.035000000    -6.197000000    -0.524000000
H    -0.902000000    -6.861000000     0.152000000
H    -1.879000000    -5.802000000    -0.309000000
O    -0.756000000    -7.657000000     2.026000000
H     0.155000000    -7.591000000     1.741000000
H    -0.924000000    -6.832000000     2.482000000
O    -2.133000000     5.897000000    -4.044000000
H    -1.864000000     5.150000000    -3.510000000
H    -2.310000000     5.524000000    -4.907000000
O    -4.270000000     6.611000000    -0.964000000
H    -4.252000000     5.656000000    -0.899000000
H    -4.439000000     6.785000000    -1.890000000
O     3.598000000     3.346000000     0.785000000
H     3.738000000     4.006000000     0.105000000
H     3.352000000     2.556000000     0.305000000
O    -0.703000000    -4.779000000    -2.652000000
H    -0.815000000    -5.258000000    -1.831000000
H    -1.207000000    -5.280000000    -3.293000000
O     3.815000000     5.363000000    -0.917000000
H     4.268000000     5.335000000    -1.760000000
H     4.217000000     6.098000000    -0.454000000
O    -1.956000000    -5.095000000     2.386000000
H    -2.557000000    -4.610000000     1.820000000
H    -1.312000000    -4.444000000     2.663000000
O     4.915000000    -2.011000000    -1.130000000
H     4.606000000    -2.546000000    -0.398000000
H     4.244000000    -1.336000000    -1.233000000
O     1.754000000    -3.775000000    -2.376000000
H     0.801000000    -3.859000000    -2.392000000
H     1.996000000    -3.966000000    -1.470000000
O    -0.449000000    -4.881000000     5.991000000
H    -1.054000000    -4.265000000     5.577000000
H     0.277000000    -4.957000000     5.372000000
O     3.274000000    -0.485000000     5.681000000
H     3.232000000    -0.881000000     4.810000000
H     3.183000000     0.454000000     5.521000000
O    -4.332000000     3.344000000    -3.593000000
H    -5.144000000     2.953000000    -3.917000000
H    -4.008000000     3.865000000    -4.328000000
O     2.454000000    -7.154000000    -1.194000000
H     2.868000000    -6.931000000    -2.027000000
H     2.086000000    -6.327000000    -0.880000000
O    -4.266000000    -2.811000000     0.979000000
H    -4.714000000    -2.234000000     1.598000000
H    -3.438000000    -2.368000000     0.795000000
O    -1.210000000     3.419000000    -3.270000000
H    -0.289000000     3.624000000    -3.110000000
H    -1.202000000     2.878000000    -4.059000000
O     0.766000000     6.574000000    -3.570000000
H     1.385000000     7.240000000    -3.269000000
H     0.841000000     6.591000000    -4.524000000
O    -5.954000000    -0.771000000     2.449000000
H    -6.736000000    -1.096000000     2.895000000
H    -6.291000000    -0.211000000     1.750000000
O     0.811000000     3.821000000    -6.693000000
H     0.344000000     3.398000000    -7.413000000
H     0.374000000     3.502000000    -5.903000000
O     1.696000000     3.357000000     2.802000000
H     1.514000000     4.277000000     2.613000000
H     2.225000000     3.060000000     2.062000000
O    -3.271000000     0.615000000     6.937000000
H    -2.872000000    -0.117000000     7.407000000
H    -3.165000000     0.393000000     6.012000000
O    -3.320000000     0.806000000    -2.671000000
H    -3.484000000     1.705000000    -2.955000000
H    -2.399000000     0.801000000    -2.411000000
O     4.387000000     0.724000000    -0.512000000
H     5.087000000     1.234000000    -0.105000000
H     4.291000000     1.104000000    -1.386000000
O    -3.035000000     4.390000000    -6.109000000
H    -3.775000000     4.501000000    -6.706000000
H    -2.674000000     3.532000000    -6.333000000
O     0.445000000    -0.229000000    -6.787000000
H     1.364000000    -0.299000000    -6.529000000
H     0.002000000    -0.910000000    -6.282000000
O     1.039000000    -5.316000000     3.498000000
H     1.739000000    -5.962000000     3.402000000
H     1.211000000    -4.673000000     2.810000000
O    -6.482000000     0.592000000     0.360000000
H    -6.858000000     1.460000000     0.214000000
H    -6.112000000     0.345000000    -0.487000000
O     7.180000000    -1.253000000     0.623000000
H     6.442000000    -1.456000000     0.049000000
H     6.888000000    -0.496000000     1.131000000
O     6.065000000    -4.026000000    -2.557000000
H     5.755000000    -3.419000000    -1.885000000
H     5.695000000    -3.689000000    -3.373000000
O     4.674000000    -1.347000000     2.869000000
H     4.752000000    -0.708000000     2.161000000
H     5.493000000    -1.265000000     3.357000000
O    -3.026000000     3.918000000    -1.166000000
H    -3.688000000     3.739000000    -1.834000000
H    -2.195000000     3.901000000    -1.641000000
O    -2.097000000    -2.847000000     5.059000000
H    -1.821000000    -2.460000000     4.228000000
H    -1.766000000    -2.245000000     5.726000000
O     0.479000000     1.262000000     4.312000000
H     0.731000000     2.157000000     4.085000000
H    -0.136000000     1.005000000     3.625000000
