158
-3033.92579
C    -1.258000000    -0.396000000     0.710000000
H    -2.170000000    -0.500000000     1.293000000
C    -1.097000000     0.762000000    -0.045000000
H    -1.891000000     1.487000000     0.118000000
C     0.099000000     1.038000000    -0.747000000
H     0.177000000     2.035000000    -1.179000000
C     1.115000000     0.126000000    -0.660000000
H     2.116000000     0.378000000    -1.000000000
C     0.865000000    -1.131000000    -0.080000000
H     1.686000000    -1.838000000    -0.170000000
C    -0.290000000    -1.427000000     0.658000000
C    -0.255000000    -2.671000000     1.575000000
O    -1.298000000    -3.168000000     1.926000000
O     0.783000000    -3.261000000     1.851000000
O    -1.153000000    -5.539000000     6.336000000
H    -1.731000000    -4.965000000     6.838000000
H    -0.831000000    -4.990000000     5.621000000
O     4.270000000     3.090000000    -2.729000000
H     3.721000000     3.677000000    -3.248000000
H     3.964000000     3.208000000    -1.829000000
O     5.203000000    -5.571000000     0.816000000
H     4.331000000    -5.245000000     1.042000000
H     5.039000000    -6.283000000     0.198000000
O    -3.823000000    -0.551000000    -2.611000000
H    -3.807000000    -0.064000000    -1.787000000
H    -4.596000000    -0.222000000    -3.069000000
O     2.586000000     4.312000000    -5.097000000
H     3.046000000     4.923000000    -5.672000000
H     2.418000000     3.547000000    -5.647000000
O    -0.016000000    -0.020000000     4.764000000
H     0.722000000    -0.612000000     4.619000000
H     0.031000000     0.604000000     4.040000000
O     1.204000000    -4.487000000    -1.187000000
H     0.887000000    -4.584000000    -0.289000000
H     1.497000000    -5.364000000    -1.434000000
O     2.220000000    -1.971000000     4.022000000
H     2.123000000    -2.587000000     3.295000000
H     2.391000000    -1.129000000     3.601000000
O     2.498000000     4.077000000    -0.678000000
H     2.284000000     4.886000000    -1.144000000
H     1.924000000     4.082000000     0.088000000
O    -3.756000000    -4.049000000     5.689000000
H    -3.501000000    -4.007000000     6.611000000
H    -3.447000000    -3.222000000     5.318000000
O     2.097000000     5.944000000    -2.909000000
H     2.339000000     6.869000000    -2.969000000
H     2.541000000     5.532000000    -3.650000000
O    -4.949000000    -0.751000000     4.865000000
H    -4.555000000    -1.331000000     4.214000000
H    -5.255000000     0.003000000     4.361000000
O     0.904000000    -7.390000000     0.489000000
H     1.620000000    -7.053000000     1.028000000
H     0.180000000    -6.784000000     0.647000000
O    -0.654000000     5.676000000    -3.632000000
H     0.295000000     5.795000000    -3.667000000
H    -0.872000000     5.248000000    -4.461000000
O    -2.657000000     5.508000000    -1.680000000
H    -1.833000000     5.924000000    -1.935000000
H    -2.937000000     5.034000000    -2.463000000
O    -3.345000000    -6.020000000     3.895000000
H    -3.356000000    -5.230000000     4.436000000
H    -4.120000000    -6.510000000     4.171000000
O    -4.966000000     1.443000000     2.144000000
H    -5.908000000     1.367000000     2.299000000
H    -4.794000000     2.384000000     2.173000000
O     0.036000000     3.903000000     0.930000000
H    -0.873000000     4.181000000     0.816000000
H     0.440000000     4.607000000     1.437000000
O    -5.097000000     2.818000000    -2.078000000
H    -5.482000000     1.954000000    -2.228000000
H    -4.315000000     2.830000000    -2.629000000
O    -1.349000000    -5.843000000     1.784000000
H    -2.051000000    -6.097000000     2.384000000
H    -1.321000000    -4.888000000     1.839000000
O    -1.951000000    -5.153000000    -2.209000000
H    -1.851000000    -4.573000000    -1.454000000
H    -1.067000000    -5.237000000    -2.566000000
O     6.473000000     0.942000000    -2.175000000
H     5.773000000     1.457000000    -1.774000000
H     6.240000000     0.904000000    -3.103000000
O     0.220000000    -3.327000000    -3.465000000
H    -0.606000000    -2.845000000    -3.468000000
H     0.393000000    -3.501000000    -2.540000000
O     0.054000000    -4.116000000     4.493000000
H     0.766000000    -3.543000000     4.777000000
H     0.025000000    -4.009000000     3.543000000
O     3.217000000     0.338000000     3.128000000
H     4.105000000     0.346000000     2.769000000
H     2.660000000     0.596000000     2.394000000
O    -2.631000000    -3.820000000    -0.111000000
H    -3.478000000    -3.411000000     0.066000000
H    -2.149000000    -3.737000000     0.712000000
O    -0.106000000     2.714000000    -4.333000000
H     0.519000000     3.439000000    -4.297000000
H    -0.404000000     2.700000000    -5.243000000
O    -7.184000000    -0.932000000     2.362000000
H    -7.962000000    -1.223000000     1.886000000
H    -6.495000000    -1.537000000     2.089000000
O    -4.435000000    -3.076000000    -2.698000000
H    -3.857000000    -3.515000000    -2.074000000
H    -4.050000000    -2.207000000    -2.812000000
O    -5.324000000    -2.801000000     1.142000000
H    -5.806000000    -3.443000000     0.621000000
H    -5.155000000    -2.079000000     0.537000000
O    -2.279000000     4.369000000     2.837000000
H    -2.595000000     5.242000000     2.603000000
H    -2.652000000     3.793000000     2.170000000
O     1.811000000     6.162000000     2.136000000
H     2.687000000     6.539000000     2.222000000
H     1.446000000     6.199000000     3.020000000
O    -2.556000000     1.990000000    -2.959000000
H    -2.839000000     2.058000000    -3.871000000
H    -1.612000000     2.146000000    -2.989000000
O    -2.372000000    -7.235000000    -0.228000000
H    -2.226000000    -6.595000000    -0.925000000
H    -2.168000000    -6.762000000     0.578000000
O     5.501000000    -0.171000000     1.518000000
H     6.234000000     0.445000000     1.530000000
H     5.382000000    -0.383000000     0.592000000
O    -1.375000000     4.805000000    -6.216000000
H    -2.189000000     5.274000000    -6.401000000
H    -1.588000000     3.885000000    -6.373000000
O    -1.158000000     1.436000000    -6.697000000
H    -0.618000000     0.810000000    -6.215000000
H    -1.427000000     0.963000000    -7.484000000
O    -0.116000000    -0.805000000    -5.295000000
H    -0.502000000    -1.638000000    -5.566000000
H    -0.380000000    -0.705000000    -4.381000000
O     2.611000000    -5.244000000     1.797000000
H     2.603000000    -5.560000000     2.700000000
H     2.030000000    -4.483000000     1.804000000
O    -5.030000000    -0.085000000    -0.096000000
H    -4.918000000     0.625000000     0.535000000
H    -5.944000000    -0.021000000    -0.370000000
O     6.035000000    -2.851000000    -0.107000000
H     5.509000000    -3.395000000    -0.693000000
H     6.257000000    -3.430000000     0.622000000
O     3.727000000    -4.276000000    -2.315000000
H     2.951000000    -4.147000000    -1.769000000
H     3.452000000    -4.000000000    -3.190000000
O    -3.622000000     3.805000000     0.358000000
H    -3.294000000     4.484000000    -0.233000000
H    -3.959000000     3.124000000    -0.224000000
O    -2.680000000    -1.997000000     4.118000000
H    -2.271000000    -2.448000000     3.379000000
H    -2.069000000    -1.293000000     4.336000000
O    -0.894000000    -0.950000000    -2.589000000
H    -1.813000000    -0.801000000    -2.365000000
H    -0.403000000    -0.516000000    -1.892000000
O     0.664000000     1.638000000     2.537000000
H     0.427000000     0.946000000     1.919000000
H     0.352000000     2.444000000     2.126000000
O     2.672000000    -3.439000000    -4.777000000
H     2.462000000    -4.152000000    -5.379000000
H     1.833000000    -3.012000000    -4.608000000
O     5.199000000     1.400000000    -4.576000000
H     4.564000000     0.853000000    -5.039000000
H     4.663000000     1.990000000    -4.045000000
