158
-3046.90022
C    -0.445000000     1.311000000    -0.551000000
H    -0.678000000     2.264000000    -1.019000000
C    -0.595000000     0.131000000    -1.195000000
H    -1.010000000    -0.030000000    -2.187000000
C    -0.147000000    -1.059000000    -0.537000000
H    -0.193000000    -1.966000000    -1.064000000
C     0.320000000    -1.021000000     0.768000000
H     0.557000000    -1.976000000     1.230000000
C     0.445000000     0.178000000     1.438000000
H     0.932000000     0.265000000     2.406000000
C     0.124000000     1.402000000     0.744000000
C     0.498000000     2.713000000     1.318000000
O    -0.165000000     3.684000000     1.036000000
O     1.466000000     2.850000000     1.999000000
O     2.553000000    -2.096000000    -4.341000000
H     3.281000000    -1.963000000    -3.735000000
H     2.972000000    -2.285000000    -5.181000000
O    -1.807000000     7.399000000    -0.564000000
H    -1.218000000     8.131000000    -0.747000000
H    -2.360000000     7.336000000    -1.343000000
O     0.384000000    -7.045000000    -2.770000000
H     0.643000000    -6.980000000    -1.851000000
H     0.748000000    -6.259000000    -3.177000000
O     0.516000000     7.868000000     1.706000000
H     0.692000000     7.866000000     0.765000000
H    -0.079000000     8.606000000     1.837000000
O    -3.175000000     6.186000000     3.540000000
H    -3.431000000     6.048000000     4.452000000
H    -2.348000000     5.712000000     3.449000000
O    -2.618000000    -3.341000000     1.086000000
H    -2.955000000    -3.083000000     0.228000000
H    -1.969000000    -4.017000000     0.895000000
O     3.377000000    -2.979000000     0.804000000
H     3.251000000    -2.527000000     1.639000000
H     4.116000000    -2.527000000     0.397000000
O    -3.979000000    -3.530000000    -4.421000000
H    -4.163000000    -3.465000000    -5.358000000
H    -3.026000000    -3.603000000    -4.369000000
O     2.650000000     0.588000000    -2.363000000
H     2.187000000    -0.083000000    -1.862000000
H     2.063000000     1.345000000    -2.348000000
O     1.572000000     4.145000000    -1.197000000
H     0.915000000     4.045000000    -0.509000000
H     1.263000000     3.581000000    -1.907000000
O     3.698000000    -5.405000000    -3.002000000
H     3.945000000    -6.263000000    -2.654000000
H     4.322000000    -4.798000000    -2.605000000
O    -1.268000000    -2.299000000     3.717000000
H    -1.812000000    -2.285000000     2.929000000
H    -0.417000000    -2.616000000     3.415000000
O     1.601000000     3.669000000     4.518000000
H     1.594000000     3.384000000     3.604000000
H     1.701000000     4.620000000     4.471000000
O     0.405000000    -0.054000000    -5.282000000
H     1.090000000    -0.617000000    -4.923000000
H     0.241000000     0.592000000    -4.595000000
O    -1.598000000     4.670000000    -0.718000000
H    -1.593000000     5.615000000    -0.568000000
H    -1.057000000     4.312000000    -0.014000000
O    -2.717000000     3.310000000     4.739000000
H    -2.301000000     2.868000000     5.479000000
H    -1.986000000     3.657000000     4.226000000
O     2.948000000    -2.051000000     3.337000000
H     3.241000000    -1.828000000     4.221000000
H     2.460000000    -2.868000000     3.446000000
O     5.361000000     5.894000000     2.854000000
H     4.769000000     5.547000000     2.186000000
H     5.256000000     5.302000000     3.598000000
O     1.728000000     6.431000000     3.861000000
H     1.371000000     6.977000000     3.160000000
H     2.671000000     6.417000000     3.696000000
O    -4.880000000     3.683000000    -2.938000000
H    -4.435000000     3.508000000    -2.108000000
H    -5.787000000     3.861000000    -2.689000000
O    -0.708000000    -1.580000000    -7.228000000
H    -0.034000000    -2.244000000    -7.375000000
H    -0.412000000    -1.107000000    -6.450000000
O    -4.449000000     3.448000000     2.530000000
H    -4.009000000     4.025000000     3.155000000
H    -4.295000000     2.566000000     2.868000000
O    -2.759000000    -0.360000000     1.568000000
H    -2.607000000    -1.288000000     1.388000000
H    -2.106000000     0.097000000     1.038000000
O     3.290000000    -5.766000000     0.881000000
H     3.224000000    -4.826000000     0.711000000
H     2.698000000    -5.918000000     1.617000000
O     1.143000000    -4.688000000    -4.023000000
H     1.269000000    -3.742000000    -3.960000000
H     2.020000000    -5.055000000    -3.906000000
O    -1.447000000    -5.920000000     0.632000000
H    -1.168000000    -6.336000000     1.448000000
H    -0.802000000    -6.205000000    -0.015000000
O    -3.967000000    -2.425000000    -1.298000000
H    -4.799000000    -2.760000000    -0.965000000
H    -3.769000000    -2.981000000    -2.051000000
O     4.558000000     4.317000000     5.007000000
H     4.127000000     4.772000000     5.731000000
H     4.115000000     3.470000000     4.959000000
O    -0.960000000     4.748000000     3.331000000
H    -0.207000000     5.133000000     3.781000000
H    -0.604000000     4.420000000     2.505000000
O    -3.568000000     2.719000000    -0.605000000
H    -2.817000000     3.299000000    -0.729000000
H    -3.805000000     2.827000000     0.316000000
O     1.280000000    -7.109000000    -0.194000000
H     1.094000000    -7.947000000     0.229000000
H     1.963000000    -6.714000000     0.348000000
O    -3.886000000    -5.604000000    -0.477000000
H    -4.351000000    -5.404000000     0.335000000
H    -3.111000000    -6.090000000    -0.195000000
O     3.832000000     1.329000000     3.062000000
H     4.075000000     0.666000000     2.415000000
H     3.182000000     1.872000000     2.616000000
O     0.291000000    -2.156000000     6.139000000
H    -0.462000000    -1.883000000     5.616000000
H     0.785000000    -1.349000000     6.287000000
O     4.245000000     4.483000000    -1.484000000
H     3.312000000     4.388000000    -1.292000000
H     4.390000000     5.429000000    -1.503000000
O     0.016000000     2.068000000    -3.653000000
H    -0.875000000     2.351000000    -3.860000000
H     0.578000000     2.690000000    -4.115000000
O    -1.768000000     5.502000000    -3.461000000
H    -1.670000000     4.668000000    -3.920000000
H    -1.582000000     5.295000000    -2.545000000
O     2.835000000     5.259000000     1.467000000
H     2.668000000     4.321000000     1.552000000
H     1.965000000     5.660000000     1.483000000
O    -4.652000000     0.334000000    -1.761000000
H    -3.885000000     0.903000000    -1.708000000
H    -4.326000000    -0.532000000    -1.515000000
O     1.100000000    -4.010000000     3.812000000
H     0.465000000    -4.304000000     4.465000000
H     1.456000000    -4.818000000     3.443000000
O     4.656000000    -1.939000000    -2.642000000
H     5.309000000    -2.455000000    -2.171000000
H     5.052000000    -1.072000000    -2.728000000
O    -2.477000000     3.023000000    -4.351000000
H    -3.367000000     3.228000000    -4.065000000
H    -2.499000000     3.138000000    -5.301000000
O    -1.413000000    -3.514000000    -4.836000000
H    -0.909000000    -3.338000000    -5.631000000
H    -0.829000000    -4.045000000    -4.295000000
O    -0.306000000     2.873000000     6.284000000
H     0.230000000     2.538000000     7.003000000
H     0.327000000     3.198000000     5.644000000
O     5.025000000    -0.352000000     0.869000000
H     5.001000000     0.371000000     0.243000000
H     5.901000000    -0.309000000     1.252000000
O     2.810000000     0.316000000     5.700000000
H     2.776000000     0.337000000     4.743000000
H     3.630000000     0.759000000     5.920000000
O     5.488000000     2.370000000    -0.191000000
H     6.345000000     2.798000000    -0.188000000
H     4.893000000     3.027000000    -0.553000000
O    -4.885000000    -4.435000000     2.097000000
H    -4.061000000    -4.040000000     1.813000000
H    -5.423000000    -3.694000000     2.376000000
