158
-3041.81228
C    -0.894000000     1.258000000     0.188000000
H    -1.644000000     2.030000000     0.338000000
C    -1.304000000     0.026000000    -0.327000000
H    -2.327000000    -0.092000000    -0.672000000
C    -0.403000000    -1.004000000    -0.539000000
H    -0.653000000    -1.997000000    -1.088000000
C     0.925000000    -0.932000000    -0.136000000
H     1.654000000    -1.696000000    -0.391000000
C     1.333000000     0.272000000     0.478000000
H     2.358000000     0.336000000     0.836000000
C     0.468000000     1.388000000     0.688000000
C     0.956000000     2.554000000     1.405000000
O     0.348000000     3.591000000     1.241000000
O     1.853000000     2.451000000     2.248000000
O     0.271000000    -5.874000000    -4.961000000
H    -0.158000000    -6.729000000    -5.002000000
H     0.906000000    -5.958000000    -4.250000000
O    -0.970000000     6.949000000     4.190000000
H    -1.385000000     6.767000000     3.347000000
H    -1.153000000     6.172000000     4.719000000
O    -4.172000000     5.912000000     1.508000000
H    -4.810000000     5.619000000     2.158000000
H    -3.419000000     5.335000000     1.636000000
O    -2.983000000    -3.752000000    -1.087000000
H    -3.688000000    -3.693000000    -1.732000000
H    -2.182000000    -3.782000000    -1.610000000
O     3.409000000    -2.404000000     3.432000000
H     2.820000000    -2.850000000     2.824000000
H     3.113000000    -1.494000000     3.429000000
O     2.753000000     0.551000000    -2.196000000
H     2.036000000     0.224000000    -1.654000000
H     2.505000000     1.452000000    -2.403000000
O     1.400000000     2.814000000    -2.552000000
H     0.923000000     3.463000000    -2.034000000
H     0.816000000     2.616000000    -3.284000000
O    -3.731000000     3.075000000     4.277000000
H    -3.409000000     2.711000000     5.101000000
H    -4.361000000     2.428000000     3.959000000
O     1.312000000    -2.300000000    -3.686000000
H     2.146000000    -2.756000000    -3.572000000
H     0.799000000    -2.543000000    -2.915000000
O     0.737000000     3.865000000     4.394000000
H     0.936000000     3.431000000     3.564000000
H     1.383000000     4.568000000     4.458000000
O     1.638000000    -0.299000000    -5.627000000
H     1.183000000    -0.771000000    -4.929000000
H     2.119000000    -0.976000000    -6.101000000
O     5.005000000    -1.357000000    -1.819000000
H     4.214000000    -0.820000000    -1.793000000
H     5.718000000    -0.743000000    -1.641000000
O    -0.516000000     4.677000000    -1.012000000
H    -0.575000000     5.564000000    -0.657000000
H    -0.306000000     4.130000000    -0.254000000
O    -2.890000000     0.610000000     2.721000000
H    -2.429000000     1.401000000     3.002000000
H    -2.214000000    -0.067000000     2.701000000
O     1.370000000    -7.181000000    -1.037000000
H     0.494000000    -7.329000000    -0.681000000
H     1.806000000    -8.030000000    -0.962000000
O     1.494000000    -4.109000000     2.481000000
H     1.567000000    -4.841000000     3.093000000
H     0.588000000    -4.142000000     2.175000000
O     6.000000000    -3.952000000    -1.218000000
H     5.671000000    -3.054000000    -1.244000000
H     6.204000000    -4.106000000    -0.295000000
O     1.654000000     7.279000000     1.726000000
H     1.396000000     7.776000000     0.949000000
H     1.575000000     6.363000000     1.461000000
O    -5.829000000     2.187000000    -2.533000000
H    -4.953000000     2.439000000    -2.243000000
H    -6.195000000     2.986000000    -2.913000000
O    -4.333000000     2.530000000     0.522000000
H    -3.793000000     2.567000000     1.311000000
H    -4.772000000     1.681000000     0.571000000
O    -0.780000000    -1.258000000     2.508000000
H    -0.021000000    -1.491000000     3.042000000
H    -0.589000000    -1.627000000     1.645000000
O     4.219000000     0.746000000    -4.546000000
H     3.590000000     0.583000000    -5.249000000
H     3.770000000     0.461000000    -3.751000000
O     3.250000000    -3.703000000     0.116000000
H     4.044000000    -4.184000000     0.347000000
H     2.569000000    -4.086000000     0.670000000
O     3.508000000     0.718000000     6.421000000
H     3.536000000     1.094000000     5.541000000
H     4.317000000     0.212000000     6.492000000
O    -0.513000000    -2.370000000    -5.643000000
H    -0.756000000    -3.292000000    -5.728000000
H     0.148000000    -2.360000000    -4.951000000
O    -0.735000000    -4.300000000    -2.601000000
H     0.144000000    -4.541000000    -2.307000000
H    -0.838000000    -4.749000000    -3.440000000
O     0.588000000     0.187000000     4.532000000
H     1.028000000     0.344000000     3.697000000
H     0.402000000     1.062000000     4.873000000
O    -4.765000000    -3.830000000    -3.475000000
H    -5.573000000    -3.354000000    -3.668000000
H    -4.078000000    -3.321000000    -3.905000000
O    -1.960000000     4.619000000     2.499000000
H    -2.055000000     4.083000000     3.286000000
H    -1.164000000     4.290000000     2.080000000
O    -3.112000000     4.359000000    -2.168000000
H    -2.224000000     4.193000000    -1.854000000
H    -3.575000000     4.708000000    -1.406000000
O     1.798000000    -4.705000000    -2.045000000
H     1.577000000    -5.508000000    -1.573000000
H     2.581000000    -4.375000000    -1.604000000
O    -3.692000000    -7.137000000    -1.029000000
H    -3.325000000    -6.280000000    -0.812000000
H    -4.640000000    -7.008000000    -0.993000000
O     6.390000000     2.716000000     3.335000000
H     6.499000000     2.159000000     2.564000000
H     5.613000000     3.241000000     3.142000000
O    -1.032000000     2.764000000    -4.406000000
H    -1.869000000     2.343000000    -4.210000000
H    -0.912000000     2.634000000    -5.346000000
O     2.074000000     6.174000000     4.774000000
H     1.464000000     6.504000000     4.114000000
H     1.910000000     6.718000000     5.545000000
O     4.144000000     3.978000000     2.228000000
H     3.247000000     3.643000000     2.210000000
H     4.368000000     4.110000000     1.307000000
O    -6.949000000    -1.376000000    -1.293000000
H    -6.570000000    -0.809000000    -0.621000000
H    -6.212000000    -1.600000000    -1.861000000
O    -1.092000000    -4.097000000     1.436000000
H    -1.624000000    -4.867000000     1.636000000
H    -1.467000000    -3.750000000     0.627000000
O    -6.949000000     3.380000000     0.334000000
H    -6.000000000     3.477000000     0.407000000
H    -7.090000000     3.071000000    -0.561000000
O     4.499000000    -2.978000000    -3.873000000
H     5.238000000    -3.581000000    -3.955000000
H     4.754000000    -2.382000000    -3.169000000
O    -2.451000000    -6.294000000     1.533000000
H    -3.204000000    -6.710000000     1.952000000
H    -2.140000000    -6.942000000     0.901000000
O    -3.521000000     1.482000000    -4.429000000
H    -4.299000000     1.683000000    -3.909000000
H    -3.786000000     1.655000000    -5.333000000
O    -3.201000000    -1.527000000    -4.912000000
H    -2.352000000    -1.793000000    -5.265000000
H    -3.068000000    -0.624000000    -4.625000000
O    -0.342000000     2.359000000     6.307000000
H    -0.234000000     2.916000000     7.078000000
H    -0.094000000     2.918000000     5.570000000
O     6.117000000     0.816000000     1.311000000
H     6.519000000     0.823000000     0.443000000
H     6.182000000    -0.094000000     1.599000000
O     3.209000000     0.420000000     3.450000000
H     3.994000000     0.452000000     2.903000000
H     2.711000000     1.199000000     3.201000000
O    -4.213000000    -3.701000000     1.730000000
H    -3.866000000    -3.329000000     0.920000000
H    -3.487000000    -4.209000000     2.092000000
O    -5.454000000     0.183000000     1.482000000
H    -5.815000000     0.437000000     2.331000000
H    -4.509000000     0.135000000     1.629000000
