158
-3044.16889
C     0.170000000     0.651000000     1.282000000
H     0.201000000     1.282000000     2.167000000
C    -0.767000000     0.998000000     0.341000000
H    -1.389000000     1.868000000     0.536000000
C    -0.820000000     0.276000000    -0.885000000
H    -1.491000000     0.673000000    -1.712000000
C     0.118000000    -0.718000000    -1.134000000
H     0.174000000    -1.209000000    -2.103000000
C     1.071000000    -1.017000000    -0.184000000
H     1.757000000    -1.853000000    -0.299000000
C     1.062000000    -0.425000000     1.068000000
C     2.056000000    -0.742000000     2.141000000
O     1.728000000    -0.561000000     3.295000000
O     3.119000000    -1.247000000     1.853000000
O     4.248000000     3.651000000     2.800000000
H     4.443000000     2.740000000     3.019000000
H     4.899000000     4.158000000     3.285000000
O     5.344000000    -2.527000000     2.133000000
H     5.450000000    -2.259000000     3.045000000
H     4.494000000    -2.170000000     1.875000000
O    -2.813000000     6.230000000     3.117000000
H    -3.601000000     6.712000000     2.863000000
H    -2.549000000     5.767000000     2.322000000
O     2.598000000     1.273000000    -1.753000000
H     1.750000000     1.254000000    -1.309000000
H     2.413000000     0.955000000    -2.637000000
O     4.939000000    -5.010000000     1.207000000
H     5.052000000    -4.078000000     1.397000000
H     4.260000000    -5.298000000     1.818000000
O    -1.945000000    -1.061000000    -4.249000000
H    -2.043000000    -1.929000000    -4.640000000
H    -1.970000000    -1.220000000    -3.305000000
O    -6.878000000    -0.674000000    -0.708000000
H    -7.053000000    -0.468000000    -1.626000000
H    -7.348000000    -1.494000000    -0.552000000
O     1.777000000     2.547000000    -5.133000000
H     1.889000000     3.133000000    -5.881000000
H     2.667000000     2.292000000    -4.893000000
O    -5.743000000    -3.618000000    -4.944000000
H    -4.999000000    -3.058000000    -4.721000000
H    -5.685000000    -4.349000000    -4.328000000
O    -3.329000000     3.507000000     3.888000000
H    -3.561000000     3.704000000     2.981000000
H    -4.055000000     3.858000000     4.403000000
O    -0.895000000    -1.341000000     4.006000000
H    -0.075000000    -0.875000000     3.840000000
H    -1.558000000    -0.651000000     4.049000000
O     0.777000000    -5.222000000    -3.412000000
H     0.050000000    -4.617000000    -3.264000000
H     0.477000000    -6.052000000    -3.042000000
O     0.919000000     1.524000000     4.908000000
H     1.331000000     0.757000000     4.512000000
H     0.420000000     1.174000000     5.647000000
O    -0.791000000     3.088000000    -3.481000000
H    -1.549000000     2.542000000    -3.687000000
H    -0.133000000     2.839000000    -4.130000000
O    -0.592000000    -3.673000000     2.226000000
H    -0.854000000    -2.959000000     2.807000000
H    -0.807000000    -3.358000000     1.348000000
O    -2.439000000     0.968000000     3.484000000
H    -2.753000000     1.763000000     3.914000000
H    -2.782000000     1.026000000     2.592000000
O     0.453000000    -5.695000000    -0.240000000
H     0.266000000    -5.815000000     0.691000000
H     1.042000000    -6.416000000    -0.461000000
O    -0.749000000     4.578000000    -5.976000000
H    -1.169000000     4.357000000    -5.145000000
H    -0.528000000     5.505000000    -5.894000000
O    -4.745000000     2.086000000     0.234000000
H    -4.094000000     2.542000000     0.767000000
H    -4.605000000     2.420000000    -0.652000000
O     2.076000000     3.645000000     0.915000000
H     2.636000000     4.203000000     0.376000000
H     2.649000000     3.342000000     1.620000000
O     5.348000000     0.910000000     1.976000000
H     4.715000000     0.193000000     1.968000000
H     5.956000000     0.685000000     2.680000000
O    -4.558000000    -0.649000000     0.639000000
H    -5.306000000    -0.880000000     0.088000000
H    -4.326000000     0.239000000     0.368000000
O     4.873000000     2.110000000    -0.523000000
H     4.012000000     1.756000000    -0.746000000
H     5.070000000     1.736000000     0.336000000
O     2.156000000    -0.521000000    -3.998000000
H     1.374000000    -0.656000000    -4.533000000
H     2.868000000    -0.431000000    -4.632000000
O     2.021000000    -3.526000000     3.270000000
H     1.403000000    -3.435000000     2.544000000
H     2.335000000    -2.636000000     3.430000000
O     4.300000000     1.570000000     5.368000000
H     3.770000000     2.305000000     5.676000000
H     5.101000000     1.617000000     5.890000000
O    -3.062000000     3.971000000     0.767000000
H    -3.503000000     4.455000000     0.069000000
H    -2.140000000     4.214000000     0.681000000
O    -4.242000000     3.362000000    -2.124000000
H    -3.964000000     4.139000000    -2.609000000
H    -3.985000000     2.627000000    -2.681000000
O     2.981000000    -4.216000000    -1.895000000
H     3.652000000    -4.885000000    -2.029000000
H     2.197000000    -4.576000000    -2.309000000
O     1.852000000    -2.246000000     7.567000000
H     2.333000000    -1.801000000     6.869000000
H     1.430000000    -1.540000000     8.056000000
O    -1.192000000     4.678000000    -1.428000000
H    -1.203000000     5.503000000    -1.913000000
H    -0.990000000     4.015000000    -2.088000000
O     5.438000000    -2.572000000     5.021000000
H     5.898000000    -2.814000000     5.825000000
H     4.623000000    -2.170000000     5.323000000
O     4.626000000    -2.050000000    -3.738000000
H     4.292000000    -2.895000000    -3.435000000
H     5.191000000    -1.748000000    -3.027000000
O    -0.528000000     3.934000000     4.607000000
H    -1.327000000     3.537000000     4.263000000
H     0.103000000     3.215000000     4.638000000
O     0.249000000    -4.147000000     5.549000000
H     0.045000000    -3.216000000     5.634000000
H     1.000000000    -4.174000000     4.955000000
O    -7.848000000     1.837000000     0.048000000
H    -6.930000000     1.994000000     0.267000000
H    -7.941000000     0.885000000     0.069000000
O     2.516000000     3.305000000     6.386000000
H     1.912000000     2.823000000     5.821000000
H     2.006000000     3.495000000     7.174000000
O    -2.151000000    -2.330000000     0.420000000
H    -1.710000000    -1.500000000     0.242000000
H    -3.078000000    -2.146000000     0.269000000
O     6.485000000    -2.206000000    -1.459000000
H     5.812000000    -1.681000000    -1.025000000
H     7.267000000    -2.084000000    -0.922000000
O    -1.645000000    -4.620000000    -1.564000000
H    -1.674000000    -3.725000000    -1.225000000
H    -0.767000000    -4.931000000    -1.345000000
O     4.354000000    -0.767000000    -0.539000000
H     3.967000000    -1.065000000     0.284000000
H     3.703000000    -0.168000000    -0.906000000
O    -3.024000000     1.488000000    -3.967000000
H    -3.619000000     1.506000000    -4.717000000
H    -2.675000000     0.596000000    -3.960000000
O    -0.999000000     1.324000000    -7.064000000
H    -0.051000000     1.379000000    -7.185000000
H    -1.272000000     2.228000000    -6.904000000
O    -2.971000000    -0.431000000    -7.536000000
H    -2.921000000    -1.065000000    -6.820000000
H    -2.135000000     0.035000000    -7.501000000
O     7.892000000    -1.787000000     0.771000000
H     7.569000000    -2.488000000     1.338000000
H     7.651000000    -0.980000000     1.226000000
O     3.319000000    -0.929000000     5.414000000
H     2.869000000    -0.570000000     4.650000000
H     4.016000000    -0.299000000     5.600000000
O    -0.709000000     5.195000000     1.343000000
H    -0.543000000     5.140000000     0.402000000
H    -0.030000000     4.649000000     1.739000000
O    -2.625000000    -3.465000000    -5.132000000
H    -2.589000000    -3.639000000    -6.072000000
H    -2.615000000    -4.333000000    -4.727000000
