158
-3044.92391
C    -0.996000000     1.070000000    -0.371000000
H    -1.685000000     1.795000000    -0.795000000
C    -0.869000000    -0.184000000    -1.034000000
H    -1.414000000    -0.418000000    -1.945000000
C     0.122000000    -1.077000000    -0.571000000
H     0.253000000    -2.032000000    -1.043000000
C     0.879000000    -0.813000000     0.566000000
H     1.491000000    -1.631000000     0.938000000
C     0.736000000     0.443000000     1.250000000
H     1.318000000     0.594000000     2.156000000
C    -0.176000000     1.390000000     0.764000000
C    -0.358000000     2.703000000     1.482000000
O    -1.276000000     3.460000000     1.213000000
O     0.513000000     3.068000000     2.322000000
O     3.146000000    -2.400000000    -4.075000000
H     3.964000000    -2.781000000    -3.757000000
H     3.096000000    -2.670000000    -4.992000000
O     0.276000000    -4.426000000    -5.924000000
H     1.038000000    -4.998000000    -6.013000000
H     0.239000000    -4.220000000    -4.990000000
O    -1.204000000    -6.266000000    -0.247000000
H    -1.374000000    -6.357000000     0.690000000
H    -0.340000000    -5.856000000    -0.295000000
O    -4.708000000     4.163000000     4.178000000
H    -4.479000000     4.291000000     5.098000000
H    -3.865000000     4.086000000     3.730000000
O    -3.073000000    -3.021000000     0.921000000
H    -3.649000000    -2.359000000     0.539000000
H    -2.804000000    -3.562000000     0.178000000
O     5.571000000    -1.411000000     3.239000000
H     4.750000000    -1.903000000     3.253000000
H     5.318000000    -0.529000000     2.968000000
O    -4.401000000    -2.547000000    -3.188000000
H    -4.601000000    -2.178000000    -4.049000000
H    -3.475000000    -2.348000000    -3.052000000
O     2.937000000     1.159000000    -0.961000000
H     3.525000000     1.910000000    -0.879000000
H     2.064000000     1.522000000    -0.811000000
O     0.043000000     5.351000000     0.123000000
H    -0.522000000     4.703000000     0.547000000
H     0.772000000     4.840000000    -0.227000000
O     1.709000000    -5.722000000    -0.812000000
H     2.091000000    -4.992000000    -0.325000000
H     2.441000000    -6.321000000    -0.959000000
O     0.773000000    -3.056000000     3.460000000
H     0.038000000    -2.512000000     3.178000000
H     0.374000000    -3.733000000     4.005000000
O    -1.499000000    -5.908000000    -3.403000000
H    -2.386000000    -6.233000000    -3.554000000
H    -1.509000000    -5.599000000    -2.497000000
O    -0.312000000     4.971000000     5.867000000
H    -0.073000000     5.533000000     5.130000000
H     0.324000000     5.187000000     6.549000000
O     2.577000000     0.262000000    -3.500000000
H     2.417000000    -0.681000000    -3.533000000
H     2.541000000     0.479000000    -2.568000000
O    -3.089000000     6.671000000     1.494000000
H    -2.466000000     7.365000000     1.710000000
H    -3.046000000     6.071000000     2.239000000
O    -0.476000000     2.350000000     4.758000000
H    -0.201000000     3.185000000     5.138000000
H    -0.297000000     2.444000000     3.822000000
O     3.318000000    -2.755000000     4.109000000
H     3.308000000    -2.662000000     5.062000000
H     2.394000000    -2.779000000     3.861000000
O     4.466000000     4.813000000     2.397000000
H     3.874000000     5.251000000     1.785000000
H     4.292000000     5.233000000     3.240000000
O    -0.575000000     7.033000000     4.179000000
H    -1.307000000     7.402000000     3.683000000
H     0.088000000     6.837000000     3.517000000
O    -2.185000000     0.051000000    -5.183000000
H    -1.524000000    -0.616000000    -5.368000000
H    -1.832000000     0.853000000    -5.569000000
O    -0.282000000     7.947000000     0.085000000
H     0.446000000     8.377000000    -0.363000000
H    -0.050000000     7.018000000     0.084000000
O    -5.073000000    -0.544000000    -5.311000000
H    -5.219000000    -0.409000000    -6.247000000
H    -4.179000000    -0.233000000    -5.161000000
O    -0.115000000    -1.503000000    -6.391000000
H    -0.007000000    -2.432000000    -6.184000000
H     0.661000000    -1.083000000    -6.019000000
O    -1.137000000    -1.315000000     2.476000000
H    -2.025000000    -1.615000000     2.284000000
H    -0.724000000    -1.223000000     1.617000000
O     3.305000000    -5.309000000     3.196000000
H     3.609000000    -4.515000000     3.636000000
H     2.566000000    -5.609000000     3.726000000
O     6.464000000    -2.179000000    -0.896000000
H     5.627000000    -1.881000000    -0.539000000
H     7.032000000    -2.271000000    -0.130000000
O     1.054000000    -4.083000000    -2.886000000
H     1.886000000    -3.653000000    -3.084000000
H     1.262000000    -4.690000000    -2.175000000
O    -3.659000000    -5.393000000    -0.442000000
H    -4.033000000    -5.957000000     0.235000000
H    -2.782000000    -5.747000000    -0.591000000
O    -4.539000000    -1.173000000    -1.028000000
H    -5.374000000    -1.369000000    -0.604000000
H    -4.624000000    -1.541000000    -1.907000000
O     4.030000000     5.917000000     4.812000000
H     3.257000000     5.430000000     5.099000000
H     4.475000000     6.159000000     5.624000000
O    -2.236000000     4.493000000     3.389000000
H    -1.938000000     4.172000000     4.240000000
H    -1.704000000     4.014000000     2.753000000
O    -3.882000000     2.883000000     1.087000000
H    -2.997000000     3.188000000     1.288000000
H    -4.080000000     2.251000000     1.777000000
O     3.878000000    -5.439000000    -2.920000000
H     4.350000000    -4.888000000    -2.296000000
H     4.110000000    -6.334000000    -2.673000000
O    -4.054000000     5.890000000    -1.001000000
H    -3.869000000     6.006000000    -0.069000000
H    -3.236000000     5.552000000    -1.366000000
O     0.911000000    -7.361000000     1.808000000
H     0.052000000    -7.338000000     2.228000000
H     1.340000000    -6.555000000     2.094000000
O     3.011000000     2.330000000     3.097000000
H     3.468000000     3.170000000     3.131000000
H     2.086000000     2.563000000     3.025000000
O     1.017000000     3.266000000    -1.607000000
H     0.342000000     2.761000000    -2.061000000
H     1.153000000     4.035000000    -2.161000000
O     4.931000000     1.501000000     5.094000000
H     4.422000000     1.811000000     4.344000000
H     5.792000000     1.293000000     4.730000000
O    -1.446000000     5.515000000    -2.352000000
H    -1.348000000     4.870000000    -3.053000000
H    -0.860000000     5.207000000    -1.660000000
O     1.321000000     5.495000000     2.597000000
H     0.934000000     5.940000000     1.843000000
H     1.095000000     4.573000000     2.473000000
O    -5.736000000     1.657000000    -0.345000000
H    -5.130000000     2.330000000    -0.035000000
H    -5.203000000     0.864000000    -0.405000000
O     4.125000000    -1.025000000    -0.040000000
H     4.433000000    -0.537000000     0.724000000
H     3.712000000    -0.364000000    -0.596000000
O     3.308000000    -3.597000000     0.121000000
H     3.606000000    -2.690000000     0.053000000
H     3.524000000    -3.854000000     1.018000000
O    -1.338000000     2.698000000    -3.245000000
H    -2.034000000     2.049000000    -3.341000000
H    -1.044000000     2.868000000    -4.140000000
O    -1.550000000    -2.994000000    -3.158000000
H    -0.680000000    -2.793000000    -2.812000000
H    -1.382000000    -3.514000000    -3.943000000
O     4.771000000     0.787000000     1.802000000
H     5.292000000     1.590000000     1.785000000
H     3.893000000     1.076000000     2.048000000
O    -1.618000000     0.033000000     4.783000000
H    -1.420000000    -0.319000000     3.915000000
H    -1.104000000     0.838000000     4.838000000
O     4.635000000     3.199000000    -0.374000000
H     5.375000000     2.947000000     0.178000000
H     4.223000000     3.925000000     0.094000000
