158
-3054.61251
C     1.060000000    -0.752000000     0.715000000
H     1.713000000    -1.377000000     1.320000000
C    -0.325000000    -0.821000000     0.973000000
H    -0.680000000    -1.360000000     1.847000000
C    -1.196000000    -0.072000000     0.212000000
H    -2.227000000     0.046000000     0.595000000
C    -0.754000000     0.661000000    -0.843000000
H    -1.446000000     1.271000000    -1.419000000
C     0.581000000     0.690000000    -1.177000000
H     0.919000000     1.461000000    -1.865000000
C     1.493000000    -0.059000000    -0.412000000
C     3.022000000    -0.053000000    -0.704000000
O     3.390000000     0.572000000    -1.714000000
O     3.780000000    -0.646000000     0.051000000
O     3.107000000     2.848000000    -2.898000000
H     2.701000000     2.509000000    -3.696000000
H     3.318000000     2.067000000    -2.387000000
O    -2.736000000     3.170000000     0.474000000
H    -3.550000000     3.131000000     0.976000000
H    -2.995000000     2.941000000    -0.419000000
O     3.250000000    -0.600000000    -4.296000000
H     3.307000000    -0.191000000    -3.433000000
H     2.349000000    -0.919000000    -4.351000000
O    -6.676000000     3.702000000     0.454000000
H    -6.111000000     3.465000000     1.189000000
H    -7.499000000     3.244000000     0.626000000
O    -4.439000000    -1.889000000    -1.542000000
H    -3.908000000    -1.279000000    -2.054000000
H    -4.056000000    -2.748000000    -1.721000000
O     2.033000000     3.960000000    -0.706000000
H     1.831000000     4.857000000    -0.970000000
H     2.250000000     3.512000000    -1.525000000
O    -4.751000000     3.220000000     2.527000000
H    -4.292000000     2.384000000     2.604000000
H    -4.395000000     3.755000000     3.237000000
O    -2.990000000    -0.404000000    -3.710000000
H    -2.483000000    -0.021000000    -4.426000000
H    -2.430000000    -1.100000000    -3.365000000
O     4.708000000    -2.738000000     3.342000000
H     4.470000000    -1.938000000     2.874000000
H     4.331000000    -3.444000000     2.818000000
O     0.582000000    -0.915000000    -4.271000000
H    -0.054000000    -1.318000000    -3.680000000
H     0.056000000    -0.363000000    -4.850000000
O     5.990000000     1.920000000    -0.342000000
H     5.037000000     1.855000000    -0.289000000
H     6.289000000     1.014000000    -0.413000000
O     0.070000000     2.250000000     2.426000000
H    -0.273000000     1.723000000     1.704000000
H    -0.310000000     3.118000000     2.290000000
O    -1.126000000     0.775000000    -5.586000000
H    -1.010000000     1.599000000    -5.113000000
H    -1.519000000     1.032000000    -6.420000000
O    -2.676000000    -0.481000000     4.576000000
H    -2.494000000    -1.417000000     4.495000000
H    -1.813000000    -0.068000000     4.577000000
O     1.545000000    -3.865000000    -1.346000000
H     1.242000000    -4.436000000    -2.052000000
H     2.403000000    -3.558000000    -1.638000000
O     7.451000000    -2.336000000     1.505000000
H     7.403000000    -1.414000000     1.250000000
H     7.444000000    -2.321000000     2.462000000
O     3.194000000     4.658000000     1.644000000
H     2.871000000     4.379000000     0.787000000
H     2.881000000     3.986000000     2.249000000
O     2.493000000     2.584000000     3.624000000
H     1.694000000     2.231000000     3.232000000
H     3.013000000     1.812000000     3.845000000
O    -3.476000000    -2.709000000     1.204000000
H    -3.948000000    -1.918000000     1.467000000
H    -3.292000000    -2.579000000     0.273000000
O    -2.384000000     5.744000000    -1.604000000
H    -2.249000000     5.631000000    -0.663000000
H    -2.411000000     4.852000000    -1.950000000
O     0.802000000    -3.413000000     3.747000000
H    -0.053000000    -3.731000000     4.037000000
H     0.910000000    -3.781000000     2.870000000
O    -2.459000000    -5.120000000     1.721000000
H    -2.801000000    -5.840000000     1.191000000
H    -3.175000000    -4.486000000     1.754000000
O     5.178000000     4.950000000    -2.608000000
H     5.892000000     4.611000000    -2.069000000
H     4.632000000     4.186000000    -2.791000000
O     3.310000000    -3.679000000     1.283000000
H     3.585000000    -2.953000000     0.724000000
H     2.774000000    -4.230000000     0.713000000
O     3.603000000     1.579000000    -5.924000000
H     3.782000000     1.031000000    -6.688000000
H     3.591000000     0.967000000    -5.188000000
O    -1.512000000    -2.100000000    -2.297000000
H    -0.837000000    -2.767000000    -2.175000000
H    -1.139000000    -1.308000000    -1.909000000
O     0.180000000    -4.574000000     1.065000000
H    -0.718000000    -4.717000000     1.365000000
H     0.097000000    -3.939000000     0.354000000
O    -4.294000000     0.375000000     2.723000000
H    -5.152000000    -0.050000000     2.705000000
H    -3.826000000    -0.059000000     3.436000000
O     6.927000000    -4.154000000    -0.519000000
H     7.408000000    -3.628000000    -1.157000000
H     6.962000000    -3.641000000     0.289000000
O     6.352000000    -2.962000000    -3.214000000
H     7.202000000    -3.368000000    -3.382000000
H     6.348000000    -2.176000000    -3.760000000
O     6.350000000     0.979000000     2.498000000
H     6.280000000     1.544000000     1.729000000
H     7.252000000     0.659000000     2.480000000
O    -6.890000000    -1.709000000    -0.177000000
H    -6.072000000    -1.757000000    -0.672000000
H    -6.947000000    -2.551000000     0.274000000
O    -6.183000000     3.331000000    -2.232000000
H    -6.186000000     2.431000000    -2.556000000
H    -6.290000000     3.245000000    -1.285000000
O    -0.394000000     3.484000000    -5.181000000
H    -0.587000000     4.329000000    -4.775000000
H     0.290000000     3.677000000    -5.822000000
O    -2.572000000    -3.271000000     4.239000000
H    -2.320000000    -3.422000000     3.328000000
H    -2.852000000    -4.131000000     4.555000000
O     7.266000000     0.162000000    -3.833000000
H     6.606000000     0.341000000    -3.163000000
H     8.042000000     0.638000000    -3.538000000
O    -0.312000000     1.012000000     4.786000000
H    -0.178000000     1.579000000     4.026000000
H     0.567000000     0.714000000     5.020000000
O    -5.629000000    -0.088000000    -4.496000000
H    -6.166000000    -0.025000000    -3.706000000
H    -4.731000000    -0.158000000    -4.170000000
O     6.241000000    -0.758000000    -1.217000000
H     6.398000000    -1.505000000    -1.794000000
H     5.312000000    -0.818000000    -0.995000000
O    -2.567000000     4.293000000     4.300000000
H    -2.761000000     5.210000000     4.491000000
H    -1.787000000     4.323000000     3.745000000
O     7.595000000     3.783000000    -1.240000000
H     8.417000000     3.653000000    -0.767000000
H     7.038000000     3.059000000    -0.956000000
O    -1.186000000     4.769000000     1.989000000
H    -1.689000000     5.584000000     1.985000000
H    -1.665000000     4.189000000     1.397000000
O     1.871000000    -0.984000000     4.514000000
H     2.431000000    -0.902000000     3.742000000
H     1.108000000    -1.473000000     4.206000000
O     3.888000000    -0.273000000     2.692000000
H     4.733000000     0.171000000     2.760000000
H     3.786000000    -0.454000000     1.758000000
O    -7.068000000    -1.029000000     2.465000000
H    -7.100000000    -1.321000000     1.554000000
H    -7.983000000    -1.027000000     2.747000000
O     5.259000000    -1.743000000    -6.049000000
H     5.110000000    -1.643000000    -6.989000000
H     4.565000000    -1.225000000    -5.641000000
O    -3.177000000     3.284000000    -2.462000000
H    -3.038000000     3.351000000    -3.406000000
H    -4.111000000     3.097000000    -2.369000000
O     3.922000000    -4.064000000    -2.467000000
H     3.588000000    -4.126000000    -3.362000000
H     4.835000000    -3.793000000    -2.571000000
