158
-3017.52312
C     1.182000000     0.396000000    -0.812000000
H     2.013000000     0.904000000    -1.294000000
C     1.048000000     0.612000000     0.609000000
H     1.727000000     1.262000000     1.154000000
C    -0.063000000     0.089000000     1.260000000
H    -0.151000000     0.299000000     2.352000000
C    -0.966000000    -0.704000000     0.546000000
H    -1.887000000    -1.051000000     1.008000000
C    -0.713000000    -1.070000000    -0.763000000
H    -1.491000000    -1.619000000    -1.287000000
C     0.265000000    -0.406000000    -1.535000000
C     0.237000000    -0.455000000    -3.020000000
O    -0.768000000    -0.764000000    -3.602000000
O     1.252000000    -0.065000000    -3.647000000
O     0.493000000    -4.811000000     0.933000000
H     0.241000000    -5.167000000     0.081000000
H     1.376000000    -4.467000000     0.798000000
O     1.599000000     0.598000000    -6.762000000
H     0.776000000     0.556000000    -7.249000000
H     1.429000000     0.101000000    -5.962000000
O     3.703000000     4.325000000     0.037000000
H     3.582000000     4.561000000     0.957000000
H     2.824000000     4.366000000    -0.339000000
O    -2.044000000    -4.115000000     4.729000000
H    -1.289000000    -4.698000000     4.802000000
H    -2.726000000    -4.540000000     5.248000000
O     0.104000000     2.314000000    -3.597000000
H     0.556000000     1.471000000    -3.571000000
H    -0.808000000     2.091000000    -3.783000000
O     3.504000000    -3.312000000    -0.952000000
H     3.927000000    -2.589000000    -1.414000000
H     3.286000000    -2.952000000    -0.092000000
O     5.702000000    -1.225000000     0.561000000
H     5.776000000    -1.198000000    -0.392000000
H     4.804000000    -1.514000000     0.724000000
O     2.021000000    -0.455000000     4.330000000
H     1.116000000    -0.684000000     4.539000000
H     2.528000000    -1.227000000     4.581000000
O    -0.741000000    -1.484000000     4.359000000
H    -0.940000000    -2.420000000     4.363000000
H    -1.233000000    -1.137000000     3.615000000
O     1.295000000     0.349000000     7.418000000
H     0.832000000    -0.486000000     7.489000000
H     2.023000000     0.169000000     6.822000000
O    -3.164000000    -4.916000000    -1.025000000
H    -2.919000000    -4.418000000    -0.245000000
H    -3.534000000    -5.729000000    -0.683000000
O    -5.578000000    -2.009000000    -3.923000000
H    -5.464000000    -2.947000000    -3.774000000
H    -4.694000000    -1.647000000    -3.863000000
O     3.011000000    -1.475000000     1.098000000
H     2.592000000    -0.863000000     0.494000000
H     2.489000000    -1.417000000     1.898000000
O    -0.564000000    -5.788000000    -1.639000000
H    -0.684000000    -6.503000000    -2.264000000
H    -1.397000000    -5.317000000    -1.652000000
O    -3.410000000    -0.467000000    -4.034000000
H    -3.313000000     0.379000000    -3.596000000
H    -2.518000000    -0.812000000    -4.087000000
O     4.952000000    -1.467000000    -2.269000000
H     5.720000000    -1.628000000    -2.817000000
H     4.405000000    -0.880000000    -2.791000000
O     1.259000000     4.040000000    -0.874000000
H     1.751000000     3.813000000    -1.664000000
H     0.435000000     3.562000000    -0.959000000
O    -2.428000000     2.372000000    -5.011000000
H    -2.901000000     2.162000000    -5.816000000
H    -3.054000000     2.876000000    -4.490000000
O    -2.042000000     2.743000000     4.145000000
H    -2.607000000     3.373000000     4.592000000
H    -1.330000000     2.578000000     4.763000000
O    -4.238000000     1.245000000    -1.442000000
H    -3.602000000     1.641000000    -0.846000000
H    -5.010000000     1.808000000    -1.377000000
O     2.123000000    -4.121000000    -3.467000000
H     2.572000000    -4.025000000    -2.627000000
H     1.840000000    -5.035000000    -3.485000000
O     7.206000000     1.053000000    -2.610000000
H     7.335000000     0.324000000    -2.003000000
H     6.261000000     1.204000000    -2.606000000
O    -0.687000000    -1.719000000     7.491000000
H    -1.445000000    -2.182000000     7.847000000
H    -0.162000000    -2.403000000     7.075000000
O    -4.005000000    -2.157000000     4.779000000
H    -3.638000000    -1.540000000     5.412000000
H    -3.346000000    -2.847000000     4.706000000
O     4.851000000     2.657000000     3.278000000
H     5.634000000     2.435000000     3.782000000
H     5.132000000     3.366000000     2.699000000
O    -0.056000000     1.830000000     5.657000000
H     0.434000000     1.556000000     6.432000000
H     0.597000000     1.857000000     4.958000000
O     2.977000000    -2.932000000     4.499000000
H     3.332000000    -3.482000000     5.198000000
H     2.286000000    -3.463000000     4.103000000
O    -5.072000000     3.010000000     1.632000000
H    -5.127000000     2.207000000     2.150000000
H    -4.162000000     3.042000000     1.338000000
O    -1.014000000     0.312000000    -7.787000000
H    -1.581000000     0.439000000    -7.026000000
H    -1.157000000    -0.599000000    -8.042000000
O    -4.588000000    -4.545000000    -3.437000000
H    -3.922000000    -4.601000000    -2.751000000
H    -4.903000000    -5.443000000    -3.539000000
O    -2.911000000    -3.738000000    -6.397000000
H    -2.193000000    -3.568000000    -5.787000000
H    -3.657000000    -3.265000000    -6.025000000
O     3.933000000     0.426000000    -3.999000000
H     4.206000000     0.556000000    -4.907000000
H     3.008000000     0.187000000    -4.059000000
O    -2.521000000     2.358000000     0.475000000
H    -2.561000000     1.952000000     1.341000000
H    -1.588000000     2.366000000     0.258000000
O     2.508000000     2.201000000     4.466000000
H     3.334000000     2.475000000     4.067000000
H     2.414000000     1.282000000     4.216000000
O     5.864000000    -0.856000000     3.803000000
H     6.097000000    -1.610000000     3.261000000
H     5.473000000    -0.233000000     3.191000000
O     1.694000000    -2.172000000    -5.198000000
H     2.014000000    -2.783000000    -4.533000000
H     1.479000000    -1.378000000    -4.709000000
O    -4.613000000    -1.655000000    -0.594000000
H    -3.925000000    -1.757000000    -1.251000000
H    -4.776000000    -0.712000000    -0.562000000
O    -1.660000000    -6.188000000     2.145000000
H    -2.545000000    -6.072000000     1.800000000
H    -1.128000000    -5.560000000     1.655000000
O     2.642000000    -3.073000000    -7.703000000
H     3.426000000    -3.486000000    -7.342000000
H     2.188000000    -2.713000000    -6.941000000
O    -6.518000000    -3.508000000     0.247000000
H    -6.731000000    -3.613000000     1.175000000
H    -5.657000000    -3.090000000     0.245000000
O    -0.679000000    -3.371000000    -4.587000000
H     0.123000000    -3.283000000    -5.101000000
H    -0.799000000    -2.512000000    -4.182000000
O    -3.246000000    -3.828000000     1.635000000
H    -3.051000000    -4.276000000     2.458000000
H    -4.084000000    -3.392000000     1.792000000
O     1.504000000     4.633000000     5.183000000
H     2.331000000     4.969000000     5.530000000
H     1.720000000     3.762000000     4.851000000
O     2.636000000     3.520000000    -3.260000000
H     1.883000000     2.955000000    -3.434000000
H     3.379000000     3.053000000    -3.643000000
O     6.147000000     3.608000000    -1.153000000
H     5.222000000     3.689000000    -0.919000000
H     6.391000000     2.730000000    -0.863000000
O    -4.473000000     0.273000000     2.554000000
H    -4.755000000     0.518000000     3.436000000
H    -4.677000000    -0.660000000     2.488000000
O    -2.455000000    -0.068000000     6.155000000
H    -1.736000000    -0.637000000     6.431000000
H    -2.129000000     0.363000000     5.365000000
O     4.160000000     0.131000000    -7.065000000
H     4.392000000    -0.731000000    -6.718000000
H     3.208000000     0.175000000    -6.978000000
