158
-3048.50878
C    -0.992000000     0.790000000    -0.705000000
H    -1.809000000     1.315000000    -1.195000000
C    -1.185000000    -0.499000000    -0.180000000
H    -2.147000000    -0.979000000    -0.340000000
C    -0.159000000    -1.107000000     0.473000000
H    -0.234000000    -2.176000000     0.828000000
C     1.037000000    -0.429000000     0.725000000
H     1.823000000    -0.877000000     1.327000000
C     1.267000000     0.872000000     0.230000000
H     2.257000000     1.291000000     0.390000000
C     0.205000000     1.491000000    -0.530000000
C     0.448000000     2.801000000    -1.168000000
O    -0.462000000     3.377000000    -1.763000000
O     1.522000000     3.372000000    -0.988000000
O     5.341000000     3.701000000     0.980000000
H     4.487000000     3.910000000     1.357000000
H     5.687000000     4.544000000     0.688000000
O     3.619000000     3.622000000    -2.404000000
H     3.138000000     4.247000000    -2.946000000
H     3.009000000     3.395000000    -1.701000000
O    -3.699000000    -3.810000000     0.324000000
H    -3.130000000    -4.486000000     0.692000000
H    -3.393000000    -3.705000000    -0.577000000
O     4.436000000    -1.566000000    -0.538000000
H     4.005000000    -2.400000000    -0.726000000
H     4.484000000    -1.125000000    -1.386000000
O    -0.188000000     1.700000000    -4.733000000
H    -0.550000000     1.739000000    -3.847000000
H     0.570000000     1.121000000    -4.656000000
O     5.799000000     2.161000000     3.465000000
H     5.653000000     2.657000000     2.659000000
H     6.156000000     2.803000000     4.080000000
O    -2.358000000    -6.383000000     3.364000000
H    -2.041000000    -7.267000000     3.550000000
H    -2.893000000    -6.481000000     2.577000000
O     2.429000000    -5.954000000     3.002000000
H     2.644000000    -5.073000000     2.696000000
H     1.930000000    -5.812000000     3.807000000
O    -6.376000000     0.285000000    -0.159000000
H    -6.958000000     0.522000000    -0.880000000
H    -6.869000000    -0.365000000     0.343000000
O    -0.326000000     2.565000000     5.206000000
H    -0.953000000     3.196000000     4.852000000
H    -0.198000000     1.933000000     4.499000000
O    -2.880000000     3.502000000    -2.854000000
H    -3.554000000     3.033000000    -2.362000000
H    -2.066000000     3.310000000    -2.387000000
O     0.800000000     6.256000000     3.490000000
H     1.722000000     6.178000000     3.245000000
H     0.329000000     5.778000000     2.808000000
O     1.252000000    -7.559000000    -0.957000000
H     0.769000000    -6.736000000    -0.875000000
H     1.549000000    -7.752000000    -0.068000000
O    -4.850000000     1.932000000    -1.810000000
H    -4.897000000     1.217000000    -1.174000000
H    -5.710000000     2.351000000    -1.762000000
O    -1.646000000     4.930000000    -0.045000000
H    -1.131000000     4.490000000    -0.721000000
H    -2.315000000     4.292000000     0.202000000
O     0.019000000    -2.764000000    -2.393000000
H    -0.522000000    -2.343000000    -3.060000000
H     0.177000000    -2.079000000    -1.745000000
O     1.127000000     4.145000000    -4.216000000
H     0.797000000     3.970000000    -3.335000000
H     0.503000000     3.708000000    -4.796000000
O    -3.093000000    -3.960000000    -2.321000000
H    -3.944000000    -4.111000000    -2.733000000
H    -2.766000000    -3.161000000    -2.735000000
O    -5.645000000    -2.232000000    -3.300000000
H    -5.030000000    -1.507000000    -3.191000000
H    -5.773000000    -2.573000000    -2.415000000
O    -1.793000000     7.947000000     0.363000000
H    -2.548000000     7.659000000     0.876000000
H    -1.417000000     7.137000000     0.016000000
O    -1.252000000    -1.137000000     4.361000000
H    -0.953000000    -1.334000000     5.249000000
H    -2.206000000    -1.122000000     4.428000000
O    -1.396000000     5.463000000    -3.994000000
H    -1.821000000     4.805000000    -3.444000000
H    -0.519000000     5.557000000    -3.620000000
O     6.450000000    -1.813000000     1.421000000
H     6.902000000    -1.014000000     1.148000000
H     5.765000000    -1.936000000     0.764000000
O    -1.129000000     1.149000000     2.792000000
H    -0.870000000     0.810000000     1.935000000
H    -1.150000000     0.377000000     3.358000000
O    -4.645000000    -3.530000000     2.956000000
H    -4.029000000    -3.504000000     2.224000000
H    -5.022000000    -4.409000000     2.922000000
O     7.063000000     1.084000000     0.337000000
H     7.787000000     1.706000000     0.266000000
H     6.280000000     1.632000000     0.378000000
O    -6.091000000    -3.053000000    -0.810000000
H    -5.285000000    -3.169000000    -0.308000000
H    -6.658000000    -3.768000000    -0.521000000
O    -4.697000000     1.148000000     2.136000000
H    -5.300000000     1.529000000     2.775000000
H    -5.252000000     0.913000000     1.393000000
O     2.734000000    -3.123000000     1.924000000
H     3.263000000    -2.599000000     2.526000000
H     3.071000000    -2.903000000     1.055000000
O    -3.465000000     3.352000000     1.088000000
H    -4.349000000     3.704000000     0.981000000
H    -3.591000000     2.522000000     1.548000000
O     0.367000000    -5.053000000    -0.814000000
H    -0.078000000    -4.861000000     0.012000000
H     0.262000000    -4.255000000    -1.333000000
O    -0.812000000    -4.674000000     1.553000000
H    -1.193000000    -5.364000000     2.096000000
H    -0.417000000    -4.066000000     2.179000000
O    -1.940000000    -1.643000000    -3.952000000
H    -2.238000000    -0.736000000    -3.890000000
H    -2.369000000    -1.983000000    -4.738000000
O     1.123000000    -5.479000000     5.249000000
H     0.792000000    -4.620000000     4.986000000
H     1.357000000    -5.373000000     6.171000000
O     5.587000000     6.142000000     0.002000000
H     5.123000000     6.359000000    -0.807000000
H     6.509000000     6.305000000    -0.200000000
O     1.972000000    -4.313000000    -3.620000000
H     2.372000000    -4.704000000    -2.843000000
H     1.259000000    -3.774000000    -3.276000000
O    -0.133000000     4.222000000     2.011000000
H    -0.603000000     3.414000000     2.216000000
H    -0.603000000     4.589000000     1.263000000
O    -3.908000000     6.232000000    -2.283000000
H    -4.807000000     5.926000000    -2.403000000
H    -3.369000000     5.558000000    -2.695000000
O     0.478000000    -3.317000000     3.469000000
H     1.272000000    -2.993000000     3.044000000
H    -0.036000000    -2.530000000     3.650000000
O     2.984000000    -1.123000000     5.234000000
H     3.246000000    -0.537000000     5.944000000
H     3.490000000    -0.825000000     4.478000000
O     6.642000000     2.972000000    -2.011000000
H     5.908000000     3.586000000    -1.983000000
H     6.764000000     2.787000000    -2.942000000
O     2.625000000     4.140000000     1.575000000
H     2.666000000     4.174000000     0.620000000
H     1.698000000     4.007000000     1.771000000
O    -3.190000000     2.976000000    -5.777000000
H    -2.553000000     2.275000000    -5.913000000
H    -3.137000000     3.170000000    -4.841000000
O     4.345000000     0.834000000    -2.356000000
H     3.654000000     1.074000000    -2.974000000
H     4.528000000     1.642000000    -1.877000000
O    -3.280000000     0.648000000    -3.881000000
H    -3.996000000     0.855000000    -3.280000000
H    -3.577000000     0.977000000    -4.729000000
O    -4.102000000    -0.707000000     3.836000000
H    -4.347000000    -1.605000000     3.615000000
H    -4.167000000    -0.231000000     3.008000000
O     1.154000000     6.089000000    -1.716000000
H     1.474000000     5.276000000    -1.325000000
H     1.737000000     6.766000000    -1.372000000
O     4.846000000    -0.391000000     3.322000000
H     4.937000000     0.543000000     3.133000000
H     5.409000000    -0.822000000     2.679000000
