158
-3002.45937
C    -1.092000000     0.720000000    -0.657000000
H    -1.990000000     1.103000000    -1.134000000
C    -1.204000000    -0.509000000     0.032000000
H    -2.109000000    -1.109000000    -0.021000000
C    -0.124000000    -1.109000000     0.513000000
H    -0.150000000    -2.192000000     0.884000000
C     1.124000000    -0.433000000     0.500000000
H     2.043000000    -0.913000000     0.827000000
C     1.191000000     0.849000000    -0.026000000
H     2.182000000     1.293000000    -0.086000000
C     0.148000000     1.455000000    -0.628000000
C     0.134000000     2.837000000    -1.117000000
O    -0.876000000     3.340000000    -1.605000000
O     1.165000000     3.444000000    -0.934000000
O     5.712000000     2.630000000     2.541000000
H     5.324000000     2.806000000     1.684000000
H     6.601000000     2.981000000     2.478000000
O    -2.276000000     6.572000000     2.395000000
H    -2.944000000     7.236000000     2.226000000
H    -2.300000000     6.005000000     1.624000000
O    -4.961000000     0.744000000     1.601000000
H    -5.306000000     0.475000000     0.750000000
H    -4.273000000     0.107000000     1.793000000
O     2.628000000     3.636000000    -3.200000000
H     2.075000000     3.811000000    -2.438000000
H     2.360000000     2.766000000    -3.496000000
O    -3.966000000    -3.902000000    -1.353000000
H    -3.245000000    -4.531000000    -1.365000000
H    -4.240000000    -3.834000000    -2.268000000
O     4.894000000    -1.724000000    -1.328000000
H     4.935000000    -2.671000000    -1.196000000
H     5.697000000    -1.513000000    -1.804000000
O     0.795000000     3.073000000    -5.832000000
H    -0.101000000     3.246000000    -5.544000000
H     0.764000000     2.186000000    -6.191000000
O     4.019000000     0.447000000     3.123000000
H     4.224000000     1.223000000     2.602000000
H     3.583000000     0.790000000     3.903000000
O    -0.369000000    -4.062000000     3.068000000
H     0.032000000    -3.664000000     3.841000000
H     0.181000000    -4.822000000     2.877000000
O     5.773000000    -4.186000000     1.892000000
H     5.020000000    -3.849000000     2.376000000
H     6.066000000    -4.942000000     2.400000000
O    -2.541000000     3.163000000    -3.535000000
H    -3.309000000     3.196000000    -2.964000000
H    -1.797000000     3.134000000    -2.934000000
O    -3.085000000     1.840000000     3.840000000
H    -2.932000000     0.933000000     3.577000000
H    -3.970000000     1.838000000     4.204000000
O     1.388000000    -6.393000000    -2.861000000
H     2.036000000    -5.692000000    -2.797000000
H     0.825000000    -6.271000000    -2.097000000
O    -5.116000000     2.885000000    -2.990000000
H    -5.100000000     2.065000000    -3.484000000
H    -5.528000000     3.514000000    -3.583000000
O    -2.037000000     5.104000000    -0.081000000
H    -1.591000000     4.535000000    -0.709000000
H    -2.968000000     4.984000000    -0.268000000
O     0.605000000    -2.196000000    -2.033000000
H    -0.258000000    -2.046000000    -2.419000000
H     0.620000000    -1.638000000    -1.256000000
O    -2.174000000    -2.134000000    -2.862000000
H    -2.569000000    -1.911000000    -3.704000000
H    -2.919000000    -2.303000000    -2.284000000
O    -5.749000000    -3.683000000     3.558000000
H    -5.901000000    -2.740000000     3.488000000
H    -4.807000000    -3.784000000     3.422000000
O    -0.041000000     5.944000000    -2.244000000
H    -0.232000000     5.052000000    -1.954000000
H    -0.791000000     6.185000000    -2.788000000
O     5.927000000    -0.171000000     0.869000000
H     5.248000000    -0.212000000     1.543000000
H     5.529000000    -0.586000000     0.104000000
O     0.274000000     1.416000000     3.370000000
H     0.459000000     1.372000000     2.432000000
H    -0.673000000     1.543000000     3.423000000
O    -2.935000000    -3.895000000     3.303000000
H    -2.963000000    -4.821000000     3.063000000
H    -2.055000000    -3.610000000     3.059000000
O     4.103000000     0.903000000    -1.641000000
H     4.086000000     0.056000000    -1.196000000
H     3.486000000     0.804000000    -2.366000000
O    -2.898000000    -2.290000000     5.737000000
H    -3.674000000    -2.797000000     5.977000000
H    -2.347000000    -2.907000000     5.257000000
O    -4.947000000    -1.260000000    -0.378000000
H    -4.522000000    -2.080000000    -0.632000000
H    -5.562000000    -1.079000000    -1.089000000
O    -4.790000000     3.543000000     2.236000000
H    -4.735000000     3.705000000     1.295000000
H    -4.950000000     2.602000000     2.308000000
O    -0.045000000     7.572000000    -0.020000000
H     0.479000000     6.987000000     0.528000000
H    -0.120000000     7.112000000    -0.856000000
O     3.667000000    -3.566000000     3.383000000
H     4.004000000    -2.678000000     3.505000000
H     3.191000000    -3.755000000     4.193000000
O    -5.091000000     4.768000000    -0.584000000
H    -4.959000000     4.195000000    -1.339000000
H    -6.036000000     4.917000000    -0.559000000
O    -1.707000000    -5.023000000    -2.260000000
H    -1.024000000    -5.360000000    -1.680000000
H    -1.292000000    -4.294000000    -2.721000000
O     0.132000000    -5.991000000    -0.699000000
H     0.767000000    -5.695000000    -0.048000000
H    -0.450000000    -6.578000000    -0.217000000
O     2.500000000     6.774000000    -1.393000000
H     2.536000000     7.480000000    -2.038000000
H     1.705000000     6.289000000    -1.614000000
O     1.984000000    -4.768000000     1.121000000
H     2.060000000    -3.831000000     0.941000000
H     2.333000000    -4.870000000     2.006000000
O     0.991000000    -0.191000000     5.201000000
H     1.672000000     0.424000000     5.472000000
H     0.565000000     0.236000000     4.458000000
O     2.711000000    -4.099000000    -2.749000000
H     3.508000000    -4.183000000    -2.225000000
H     2.211000000    -3.407000000    -2.316000000
O     0.798000000     4.948000000     1.179000000
H     1.081000000     4.400000000     0.447000000
H    -0.158000000     4.933000000     1.134000000
O    -2.290000000     6.655000000    -4.027000000
H    -3.169000000     7.030000000    -4.081000000
H    -2.188000000     6.164000000    -4.843000000
O     0.089000000    -2.782000000     5.438000000
H     0.822000000    -3.233000000     5.856000000
H     0.409000000    -1.893000000     5.286000000
O     5.782000000    -1.603000000     4.004000000
H     5.230000000    -0.860000000     3.759000000
H     6.667000000    -1.240000000     4.043000000
O     1.620000000    -6.314000000     3.730000000
H     2.302000000    -6.123000000     4.373000000
H     2.002000000    -6.988000000     3.168000000
O     6.219000000     2.454000000    -2.204000000
H     5.540000000     1.781000000    -2.158000000
H     5.822000000     3.161000000    -2.712000000
O     5.149000000     4.965000000    -2.960000000
H     4.294000000     4.561000000    -3.109000000
H     4.969000000     5.692000000    -2.363000000
O     4.202000000     2.789000000     0.132000000
H     4.312000000     2.202000000    -0.616000000
H     3.297000000     3.094000000     0.066000000
O    -2.099000000     4.404000000    -5.976000000
H    -2.502000000     3.839000000    -6.635000000
H    -2.563000000     4.194000000    -5.165000000
O     2.027000000     0.880000000    -3.911000000
H     2.293000000     0.697000000    -4.812000000
H     1.092000000     1.079000000    -3.973000000
O    -0.940000000     0.912000000    -4.284000000
H    -1.681000000     1.470000000    -4.519000000
H    -1.279000000     0.342000000    -3.594000000
O    -3.050000000    -0.637000000     3.173000000
H    -3.289000000    -0.982000000     4.033000000
H    -2.728000000    -1.398000000     2.690000000
O     3.042000000     4.534000000     2.744000000
H     2.339000000     4.664000000     2.109000000
H     3.753000000     5.093000000     2.433000000
