158
-3022.24346
C    -1.135000000     0.419000000    -0.838000000
H    -1.860000000     0.652000000    -1.614000000
C    -0.840000000    -0.903000000    -0.498000000
H    -1.477000000    -1.636000000    -0.988000000
C     0.245000000    -1.175000000     0.320000000
H     0.548000000    -2.218000000     0.460000000
C     0.901000000    -0.121000000     0.955000000
H     1.669000000    -0.328000000     1.696000000
C     0.605000000     1.168000000     0.629000000
H     1.194000000     1.957000000     1.088000000
C    -0.439000000     1.474000000    -0.291000000
C    -0.453000000     2.857000000    -0.925000000
O    -1.442000000     3.088000000    -1.636000000
O     0.330000000     3.745000000    -0.626000000
O    -0.061000000    -8.033000000    -1.205000000
H    -0.915000000    -8.373000000    -1.473000000
H     0.035000000    -7.215000000    -1.694000000
O     4.330000000    -1.133000000    -0.328000000
H     4.892000000    -1.604000000    -0.942000000
H     4.119000000    -0.314000000    -0.776000000
O    -5.402000000    -3.143000000     1.410000000
H    -4.807000000    -3.673000000     1.942000000
H    -5.000000000    -3.130000000     0.542000000
O    -1.347000000     7.173000000    -5.118000000
H    -1.886000000     6.874000000    -4.386000000
H    -0.599000000     6.576000000    -5.125000000
O    -2.101000000     5.167000000    -3.066000000
H    -2.409000000     4.704000000    -3.845000000
H    -1.797000000     4.475000000    -2.480000000
O     2.550000000     2.099000000    -3.962000000
H     3.202000000     1.533000000    -4.375000000
H     1.717000000     1.826000000    -4.347000000
O    -5.462000000    -0.657000000    -1.900000000
H    -5.710000000    -1.065000000    -2.729000000
H    -4.930000000    -1.318000000    -1.457000000
O     5.765000000    -2.740000000    -1.767000000
H     6.355000000    -3.267000000    -1.228000000
H     5.271000000    -3.380000000    -2.279000000
O     3.447000000    -3.686000000    -3.559000000
H     2.766000000    -4.187000000    -4.007000000
H     3.026000000    -3.368000000    -2.761000000
O    -1.840000000    -5.299000000    -0.429000000
H    -2.494000000    -4.604000000    -0.503000000
H    -2.089000000    -5.779000000     0.362000000
O    -0.776000000    -6.336000000     4.325000000
H    -0.025000000    -5.783000000     4.541000000
H    -0.444000000    -6.942000000     3.663000000
O     5.099000000    -5.826000000    -1.445000000
H     4.823000000    -6.516000000    -2.049000000
H     4.281000000    -5.462000000    -1.107000000
O     0.726000000     1.246000000    -5.616000000
H     0.168000000     1.696000000    -6.250000000
H     0.793000000     0.351000000    -5.950000000
O    -4.376000000     6.374000000    -2.161000000
H    -4.696000000     6.464000000    -3.058000000
H    -3.478000000     6.055000000    -2.258000000
O     0.726000000    -4.383000000    -4.694000000
H     0.359000000    -3.517000000    -4.873000000
H     0.589000000    -4.511000000    -3.755000000
O     2.514000000    -5.888000000     2.318000000
H     3.068000000    -5.670000000     3.067000000
H     3.084000000    -6.390000000     1.736000000
O     1.850000000     6.813000000     3.074000000
H     1.916000000     7.502000000     2.413000000
H     2.336000000     6.077000000     2.703000000
O     4.076000000     5.062000000     3.265000000
H     3.727000000     4.318000000     3.756000000
H     3.870000000     4.863000000     2.351000000
O     0.416000000    -7.693000000     2.296000000
H     0.526000000    -7.730000000     1.346000000
H     1.132000000    -7.135000000     2.599000000
O    -1.871000000    -0.860000000    -4.417000000
H    -1.641000000     0.047000000    -4.214000000
H    -2.659000000    -0.793000000    -4.956000000
O    -4.513000000    -3.328000000    -1.300000000
H    -5.027000000    -4.121000000    -1.449000000
H    -3.841000000    -3.347000000    -1.981000000
O    -0.147000000     4.486000000     2.775000000
H     0.235000000     5.000000000     2.063000000
H    -0.801000000     3.934000000     2.346000000
O    -2.453000000     1.875000000    -3.855000000
H    -2.027000000     2.470000000    -3.238000000
H    -3.233000000     2.349000000    -4.145000000
O     0.881000000    -5.232000000    -1.785000000
H     0.003000000    -5.071000000    -1.439000000
H     1.451000000    -4.666000000    -1.264000000
O     1.236000000     7.781000000     0.483000000
H     0.524000000     7.142000000     0.486000000
H     1.562000000     7.773000000    -0.417000000
O     3.797000000     1.950000000     3.287000000
H     4.221000000     2.329000000     4.057000000
H     2.866000000     2.138000000     3.408000000
O    -3.629000000    -4.709000000     2.533000000
H    -3.471000000    -5.613000000     2.258000000
H    -3.478000000    -4.716000000     3.478000000
O     2.329000000     4.570000000    -2.441000000
H     2.353000000     3.912000000    -3.135000000
H     1.651000000     4.261000000    -1.841000000
O    -3.743000000     2.639000000    -0.284000000
H    -3.472000000     3.191000000    -1.017000000
H    -3.012000000     2.035000000    -0.156000000
O     3.551000000    -1.985000000     2.932000000
H     4.195000000    -1.722000000     3.590000000
H     3.943000000    -1.729000000     2.097000000
O    -2.454000000    -6.488000000    -3.335000000
H    -2.860000000    -5.874000000    -3.947000000
H    -2.379000000    -5.997000000    -2.517000000
O     3.907000000     1.245000000    -1.466000000
H     3.476000000     1.529000000    -2.272000000
H     3.608000000     1.866000000    -0.802000000
O     0.560000000    -2.064000000    -2.971000000
H     0.644000000    -1.670000000    -2.102000000
H    -0.186000000    -1.613000000    -3.367000000
O    -6.079000000     0.879000000     0.502000000
H    -5.851000000     1.808000000     0.527000000
H    -6.103000000     0.663000000    -0.431000000
O     1.129000000     2.257000000     3.906000000
H     0.753000000     3.039000000     3.501000000
H     0.454000000     1.955000000     4.513000000
O     5.234000000     3.607000000     0.573000000
H     4.871000000     4.372000000     0.127000000
H     4.583000000     3.387000000     1.239000000
O    -3.560000000     5.281000000     0.771000000
H    -4.363000000     5.717000000     0.486000000
H    -3.718000000     4.352000000     0.603000000
O    -0.901000000     6.022000000     0.279000000
H    -0.543000000     5.215000000    -0.091000000
H    -1.791000000     5.791000000     0.543000000
O     2.590000000     4.768000000     0.679000000
H     1.852000000     4.336000000     0.250000000
H     2.568000000     5.666000000     0.347000000
O    -3.797000000     4.262000000    -4.954000000
H    -4.645000000     3.863000000    -4.755000000
H    -3.834000000     4.447000000    -5.892000000
O     2.489000000    -4.023000000    -0.250000000
H     2.789000000    -4.519000000     0.512000000
H     2.612000000    -3.107000000    -0.002000000
O     1.381000000    -4.111000000     4.701000000
H     2.289000000    -4.209000000     4.416000000
H     1.164000000    -3.200000000     4.502000000
O     2.769000000     7.318000000    -2.055000000
H     2.049000000     7.932000000    -2.201000000
H     2.419000000     6.470000000    -2.330000000
O    -0.719000000    -1.538000000     6.201000000
H     0.016000000    -1.683000000     5.604000000
H    -1.172000000    -0.775000000     5.842000000
O    -1.256000000     7.667000000     2.622000000
H    -1.324000000     7.140000000     3.418000000
H    -0.440000000     7.377000000     2.212000000
O     1.398000000    -1.408000000     4.507000000
H     1.697000000    -0.596000000     4.915000000
H     1.964000000    -1.515000000     3.743000000
O    -3.038000000    -2.996000000    -3.343000000
H    -2.661000000    -2.222000000    -3.761000000
H    -3.110000000    -3.638000000    -4.049000000
O     5.805000000    -0.139000000     3.214000000
H     5.117000000     0.526000000     3.203000000
H     5.680000000    -0.600000000     4.044000000
