158
-3002.67889
C    -0.940000000     0.202000000    -1.117000000
H    -1.825000000     0.250000000    -1.745000000
C    -0.689000000    -1.034000000    -0.503000000
H    -1.215000000    -1.948000000    -0.768000000
C     0.240000000    -1.076000000     0.509000000
H     0.404000000    -2.069000000     0.969000000
C     0.997000000     0.071000000     0.878000000
H     1.767000000    -0.093000000     1.627000000
C     0.741000000     1.261000000     0.235000000
H     1.271000000     2.117000000     0.646000000
C    -0.214000000     1.328000000    -0.779000000
C    -0.619000000     2.680000000    -1.373000000
O    -1.377000000     2.844000000    -2.294000000
O    -0.225000000     3.738000000    -0.842000000
O     1.254000000    -7.457000000     0.565000000
H     0.511000000    -7.184000000     0.027000000
H     1.857000000    -6.715000000     0.536000000
O    -2.224000000     8.175000000    -1.767000000
H    -2.353000000     7.287000000    -2.102000000
H    -1.501000000     8.524000000    -2.288000000
O    -2.550000000     5.630000000    -2.596000000
H    -2.958000000     4.847000000    -2.965000000
H    -1.724000000     5.319000000    -2.226000000
O    -4.946000000    -1.806000000    -2.118000000
H    -4.526000000    -1.183000000    -2.712000000
H    -4.467000000    -2.624000000    -2.251000000
O     4.568000000     0.149000000    -2.455000000
H     4.189000000     0.787000000    -3.059000000
H     4.554000000     0.588000000    -1.604000000
O    -5.097000000     2.009000000     0.422000000
H    -4.942000000     2.524000000    -0.370000000
H    -4.223000000     1.834000000     0.769000000
O    -2.661000000     6.014000000    -5.813000000
H    -2.859000000     5.078000000    -5.831000000
H    -3.403000000     6.407000000    -5.354000000
O     4.460000000    -3.617000000     5.492000000
H     4.798000000    -3.921000000     4.650000000
H     3.806000000    -2.956000000     5.264000000
O     2.081000000    -1.080000000    -2.389000000
H     1.509000000    -0.864000000    -1.652000000
H     2.894000000    -0.607000000    -2.207000000
O    -0.937000000    -4.546000000     0.488000000
H    -0.143000000    -4.915000000     0.102000000
H    -0.944000000    -4.879000000     1.385000000
O     1.728000000    -4.455000000     5.159000000
H     2.141000000    -4.265000000     6.001000000
H     1.880000000    -5.391000000     5.024000000
O     4.261000000    -6.001000000    -0.389000000
H     4.898000000    -6.250000000     0.280000000
H     4.781000000    -5.887000000    -1.185000000
O    -0.534000000     2.902000000    -4.686000000
H    -1.176000000     2.292000000    -5.050000000
H    -0.743000000     2.941000000    -3.753000000
O    -4.893000000     5.252000000     0.283000000
H    -5.195000000     4.813000000    -0.511000000
H    -3.968000000     5.014000000     0.352000000
O     3.629000000     1.379000000     5.614000000
H     3.029000000     1.919000000     5.099000000
H     4.156000000     2.009000000     6.106000000
O     2.890000000    -5.623000000     2.707000000
H     2.781000000    -4.830000000     3.232000000
H     2.251000000    -6.238000000     3.067000000
O    -3.701000000    -0.282000000    -4.114000000
H    -3.830000000     0.554000000    -3.666000000
H    -4.426000000    -0.334000000    -4.737000000
O    -5.562000000     3.615000000    -1.748000000
H    -5.115000000     3.388000000    -2.564000000
H    -6.456000000     3.296000000    -1.868000000
O     1.133000000    -0.834000000    -4.829000000
H     0.265000000    -1.218000000    -4.953000000
H     1.310000000    -0.937000000    -3.894000000
O    -1.559000000    -2.224000000    -4.977000000
H    -1.507000000    -2.111000000    -5.926000000
H    -2.187000000    -1.561000000    -4.691000000
O    -3.924000000    -4.551000000    -2.681000000
H    -3.673000000    -4.765000000    -1.782000000
H    -3.128000000    -4.698000000    -3.193000000
O    -3.772000000     2.706000000    -3.564000000
H    -2.985000000     2.714000000    -3.019000000
H    -3.446000000     2.826000000    -4.456000000
O    -1.674000000     7.233000000     1.449000000
H    -1.258000000     7.583000000     0.661000000
H    -1.961000000     6.355000000     1.198000000
O    -2.625000000     1.315000000     1.235000000
H    -2.492000000     0.786000000     2.022000000
H    -2.023000000     0.942000000     0.591000000
O    -3.704000000    -4.761000000     0.109000000
H    -2.788000000    -4.484000000     0.131000000
H    -3.783000000    -5.387000000     0.828000000
O    -4.009000000    -4.087000000     3.897000000
H    -4.369000000    -4.951000000     3.696000000
H    -3.064000000    -4.189000000     3.788000000
O     0.175000000     7.894000000    -0.349000000
H    -0.259000000     7.755000000    -1.191000000
H     1.099000000     8.006000000    -0.572000000
O     0.452000000     5.112000000    -3.203000000
H     0.330000000     4.554000000    -3.970000000
H     0.121000000     4.591000000    -2.472000000
O     3.361000000    -2.760000000     2.857000000
H     4.171000000    -3.218000000     2.633000000
H     3.637000000    -1.864000000     3.050000000
O    -0.883000000    -6.953000000    -1.115000000
H    -1.311000000    -7.697000000    -1.538000000
H    -1.584000000    -6.314000000    -0.987000000
O    -1.452000000    -4.646000000    -3.695000000
H    -0.584000000    -5.044000000    -3.760000000
H    -1.309000000    -3.724000000    -3.909000000
O     0.256000000     0.617000000     4.219000000
H    -0.646000000     0.573000000     3.903000000
H     0.466000000    -0.284000000     4.466000000
O     1.920000000     2.617000000     3.877000000
H     1.429000000     3.299000000     4.335000000
H     1.340000000     1.855000000     3.888000000
O     3.504000000     4.390000000     2.384000000
H     2.963000000     4.926000000     1.804000000
H     2.911000000     3.710000000     2.704000000
O     2.967000000     5.676000000    -2.596000000
H     2.067000000     5.449000000    -2.831000000
H     2.904000000     6.010000000    -1.701000000
O     2.247000000    -3.780000000    -2.774000000
H     2.231000000    -3.891000000    -1.823000000
H     2.320000000    -2.834000000    -2.903000000
O    -2.155000000     4.452000000     1.043000000
H    -1.344000000     4.190000000     0.606000000
H    -2.445000000     3.663000000     1.501000000
O     2.539000000     1.354000000    -4.113000000
H     2.237000000     0.465000000    -4.302000000
H     1.754000000     1.895000000    -4.192000000
O     1.124000000     5.051000000     1.013000000
H     0.757000000     4.523000000     0.304000000
H     0.445000000     5.698000000     1.206000000
O     0.204000000     8.000000000    -3.552000000
H    -0.216000000     8.146000000    -4.400000000
H     0.518000000     7.097000000    -3.593000000
O    -3.335000000     3.413000000    -6.257000000
H    -4.136000000     3.480000000    -6.777000000
H    -2.897000000     2.630000000    -6.593000000
O    -1.399000000    -2.968000000     5.782000000
H    -0.544000000    -2.612000000     5.540000000
H    -1.220000000    -3.528000000     6.537000000
O     4.806000000    -0.616000000     3.502000000
H     4.200000000    -0.081000000     4.016000000
H     5.615000000    -0.105000000     3.480000000
O    -1.212000000    -6.021000000     4.434000000
H    -0.472000000    -5.534000000     4.796000000
H    -1.155000000    -6.884000000     4.844000000
O     2.412000000    -4.339000000     0.151000000
H     2.316000000    -4.533000000     1.083000000
H     3.090000000    -4.944000000    -0.151000000
O     1.201000000    -1.752000000     5.315000000
H     2.029000000    -1.425000000     5.667000000
H     1.398000000    -2.641000000     5.023000000
O     0.918000000     3.246000000    -7.084000000
H     0.315000000     3.707000000    -7.666000000
H     0.452000000     3.192000000    -6.250000000
O     4.007000000     1.311000000    -0.084000000
H     4.754000000     1.595000000     0.442000000
H     3.268000000     1.318000000     0.525000000
