158
-2996.15488
C    -1.249000000     0.692000000     0.336000000
H    -2.229000000     1.150000000     0.437000000
C    -1.161000000    -0.636000000     0.038000000
H    -2.004000000    -1.318000000    -0.045000000
C     0.066000000    -1.187000000    -0.325000000
H     0.159000000    -2.265000000    -0.650000000
C     1.202000000    -0.413000000    -0.345000000
H     2.177000000    -0.832000000    -0.577000000
C     1.135000000     0.950000000     0.042000000
H     2.065000000     1.505000000    -0.045000000
C    -0.075000000     1.516000000     0.461000000
C    -0.267000000     2.993000000     0.909000000
O    -1.321000000     3.317000000     1.430000000
O     0.635000000     3.783000000     0.906000000
O     1.410000000    -3.008000000    -3.362000000
H     1.849000000    -3.357000000    -2.586000000
H     1.767000000    -2.125000000    -3.462000000
O     4.419000000    -4.764000000    -4.857000000
H     3.559000000    -4.556000000    -4.492000000
H     4.796000000    -5.390000000    -4.239000000
O     5.436000000    -2.111000000    -1.216000000
H     6.386000000    -2.182000000    -1.307000000
H     5.187000000    -2.877000000    -0.698000000
O    -3.095000000     1.447000000    -2.963000000
H    -4.013000000     1.214000000    -3.107000000
H    -3.126000000     2.336000000    -2.610000000
O    -0.155000000     8.169000000     0.984000000
H    -0.680000000     8.656000000     0.348000000
H    -0.525000000     7.287000000     0.974000000
O    -2.001000000    -4.424000000    -6.203000000
H    -2.936000000    -4.613000000    -6.281000000
H    -1.871000000    -4.238000000    -5.273000000
O    -1.227000000     5.891000000     1.135000000
H    -0.893000000     5.027000000     1.378000000
H    -2.146000000     5.876000000     1.400000000
O     4.066000000     3.282000000    -2.461000000
H     4.260000000     2.464000000    -2.004000000
H     4.367000000     3.968000000    -1.865000000
O    -3.804000000     5.619000000     2.498000000
H    -4.353000000     5.750000000     3.270000000
H    -3.407000000     4.758000000     2.629000000
O     2.395000000    -4.751000000    -1.225000000
H     3.127000000    -4.917000000    -0.631000000
H     1.841000000    -5.527000000    -1.144000000
O    -1.442000000    -3.421000000    -3.598000000
H    -1.672000000    -4.008000000    -2.878000000
H    -0.486000000    -3.450000000    -3.635000000
O    -3.515000000     2.707000000     2.642000000
H    -2.607000000     2.793000000     2.350000000
H    -3.601000000     1.786000000     2.889000000
O     1.384000000     6.058000000    -0.747000000
H     1.336000000     5.320000000    -0.140000000
H     1.912000000     6.712000000    -0.289000000
O    -4.952000000     0.156000000     3.465000000
H    -5.309000000     0.391000000     4.321000000
H    -5.715000000     0.121000000     2.888000000
O    -0.041000000     4.865000000    -2.905000000
H     0.416000000     5.133000000    -2.108000000
H    -0.957000000     5.092000000    -2.743000000
O    -1.840000000    -3.985000000     2.854000000
H    -2.046000000    -3.051000000     2.889000000
H    -1.193000000    -4.062000000     2.153000000
O    -0.115000000    -4.343000000     0.803000000
H     0.521000000    -4.651000000     1.449000000
H     0.411000000    -3.877000000     0.153000000
O     1.382000000     6.312000000     2.395000000
H     0.699000000     6.658000000     1.820000000
H     0.994000000     5.526000000     2.780000000
O    -3.082000000     3.941000000    -0.877000000
H    -3.823000000     3.364000000    -0.694000000
H    -2.448000000     3.742000000    -0.187000000
O    -2.746000000    -1.513000000     3.327000000
H    -3.510000000    -0.938000000     3.364000000
H    -2.001000000    -0.933000000     3.483000000
O    -3.384000000    -1.270000000    -4.459000000
H    -2.618000000    -1.845000000    -4.443000000
H    -3.045000000    -0.413000000    -4.202000000
O     2.024000000    -5.045000000     2.378000000
H     1.641000000    -4.983000000     3.253000000
H     2.746000000    -4.417000000     2.388000000
O     1.793000000     0.070000000    -3.854000000
H     1.073000000     0.090000000    -4.485000000
H     1.389000000     0.319000000    -3.023000000
O    -0.131000000     5.695000000     5.448000000
H    -0.648000000     6.434000000     5.127000000
H    -0.055000000     5.110000000     4.695000000
O    -1.690000000    -7.218000000    -1.174000000
H    -1.424000000    -7.791000000    -0.455000000
H    -1.895000000    -6.384000000    -0.751000000
O    -0.628000000     0.590000000    -2.592000000
H    -0.622000000     0.082000000    -1.781000000
H    -1.518000000     0.940000000    -2.649000000
O     4.703000000     0.864000000    -1.199000000
H     4.315000000     0.007000000    -1.378000000
H     5.647000000     0.704000000    -1.195000000
O     1.792000000     0.801000000     4.945000000
H     2.470000000     0.325000000     5.424000000
H     2.276000000     1.383000000     4.360000000
O    -2.425000000    -4.613000000    -0.576000000
H    -3.214000000    -4.787000000    -0.063000000
H    -1.808000000    -4.238000000     0.053000000
O     3.718000000     2.672000000     4.274000000
H     4.295000000     2.651000000     5.037000000
H     4.237000000     2.284000000     3.570000000
O    -2.597000000     5.931000000    -2.736000000
H    -3.180000000     6.635000000    -2.453000000
H    -2.759000000     5.221000000    -2.116000000
O     1.985000000    -7.509000000     1.475000000
H     2.868000000    -7.624000000     1.123000000
H     1.997000000    -6.637000000     1.870000000
O     0.167000000    -7.838000000    -2.988000000
H    -0.334000000    -7.256000000    -2.416000000
H    -0.164000000    -8.713000000    -2.786000000
O    -6.194000000    -1.220000000    -1.652000000
H    -5.834000000    -0.372000000    -1.392000000
H    -6.073000000    -1.251000000    -2.601000000
O     3.945000000    -0.100000000     2.902000000
H     4.572000000     0.250000000     2.269000000
H     4.483000000    -0.383000000     3.641000000
O     2.974000000     2.597000000    -4.879000000
H     3.049000000     2.803000000    -3.947000000
H     2.622000000     1.707000000    -4.899000000
O    -2.051000000     3.313000000     6.109000000
H    -1.157000000     2.975000000     6.050000000
H    -2.464000000     3.042000000     5.289000000
O     1.060000000     3.901000000     3.835000000
H     1.862000000     3.626000000     4.279000000
H     1.212000000     3.691000000     2.914000000
O     3.205000000     3.566000000     1.331000000
H     2.306000000     3.702000000     1.032000000
H     3.748000000     3.866000000     0.602000000
O    -4.803000000    -4.171000000    -2.837000000
H    -4.161000000    -3.521000000    -2.552000000
H    -5.100000000    -3.855000000    -3.691000000
O     4.956000000    -4.990000000     0.097000000
H     4.769000000    -5.245000000     1.000000000
H     5.880000000    -4.739000000     0.105000000
O     4.486000000     4.938000000    -0.503000000
H     4.069000000     5.759000000    -0.243000000
H     5.370000000     4.993000000    -0.139000000
O    -0.609000000     0.201000000     3.626000000
H    -0.498000000     0.386000000     2.694000000
H     0.235000000     0.426000000     4.017000000
O    -5.464000000     2.444000000    -0.168000000
H    -6.274000000     2.877000000    -0.438000000
H    -5.560000000     2.325000000     0.777000000
O     3.561000000    -2.958000000     2.189000000
H     4.517000000    -3.016000000     2.212000000
H     3.366000000    -2.083000000     2.523000000
O     0.023000000     2.718000000    -4.258000000
H     0.062000000     2.087000000    -3.539000000
H     0.189000000     3.565000000    -3.843000000
O     4.235000000     6.932000000     3.193000000
H     3.469000000     6.515000000     2.798000000
H     4.877000000     6.975000000     2.485000000
O     5.654000000     1.658000000     1.797000000
H     6.455000000     1.686000000     1.274000000
H     4.972000000     1.982000000     1.209000000
