158
-3022.90345
C    -1.183000000     0.793000000     0.388000000
H    -2.105000000     1.335000000     0.587000000
C    -1.191000000    -0.465000000    -0.145000000
H    -2.132000000    -0.899000000    -0.474000000
C    -0.029000000    -1.117000000    -0.453000000
H    -0.064000000    -2.200000000    -0.877000000
C     1.199000000    -0.538000000    -0.275000000
H     2.089000000    -1.075000000    -0.592000000
C     1.242000000     0.709000000     0.315000000
H     2.220000000     1.130000000     0.535000000
C     0.055000000     1.465000000     0.615000000
C     0.180000000     2.837000000     1.197000000
O    -0.721000000     3.319000000     1.820000000
O     1.114000000     3.536000000     0.808000000
O     1.083000000    -2.481000000    -3.632000000
H     1.940000000    -2.620000000    -3.229000000
H     1.275000000    -2.028000000    -4.453000000
O     3.478000000    -2.875000000    -1.851000000
H     2.978000000    -3.548000000    -1.388000000
H     4.198000000    -2.661000000    -1.257000000
O     5.260000000    -0.079000000     0.393000000
H     5.747000000    -0.624000000     1.012000000
H     5.865000000     0.054000000    -0.337000000
O    -2.513000000     1.716000000    -2.551000000
H    -3.066000000     2.050000000    -1.844000000
H    -3.097000000     1.662000000    -3.307000000
O    -2.855000000     6.737000000     0.537000000
H    -3.016000000     5.794000000     0.522000000
H    -1.950000000     6.821000000     0.836000000
O     3.986000000     2.111000000    -1.047000000
H     4.273000000     1.344000000    -0.550000000
H     3.876000000     2.796000000    -0.387000000
O    -5.583000000    -1.433000000     1.286000000
H    -6.145000000    -0.763000000     0.897000000
H    -6.174000000    -1.957000000     1.826000000
O    -5.236000000     3.852000000     1.798000000
H    -6.034000000     3.650000000     2.287000000
H    -4.529000000     3.712000000     2.428000000
O     2.252000000    -7.258000000    -2.304000000
H     1.804000000    -6.579000000    -2.809000000
H     2.354000000    -7.985000000    -2.918000000
O     2.073000000    -4.759000000    -0.260000000
H     2.633000000    -5.009000000     0.475000000
H     2.259000000    -5.411000000    -0.935000000
O    -1.500000000    -3.298000000    -4.010000000
H    -1.309000000    -4.236000000    -4.045000000
H    -0.710000000    -2.906000000    -3.637000000
O    -2.886000000     2.602000000     3.021000000
H    -2.079000000     3.012000000     2.709000000
H    -2.782000000     1.674000000     2.808000000
O     0.513000000     3.918000000    -1.837000000
H     0.626000000     3.664000000    -0.921000000
H     0.198000000     3.124000000    -2.268000000
O    -3.458000000    -0.311000000     2.421000000
H    -3.706000000    -0.268000000     3.345000000
H    -4.229000000    -0.675000000     1.984000000
O    -2.878000000    -3.311000000     3.092000000
H    -3.314000000    -3.619000000     3.887000000
H    -1.944000000    -3.367000000     3.293000000
O    -0.511000000    -5.159000000     1.097000000
H    -0.433000000    -5.064000000     2.046000000
H     0.096000000    -4.509000000     0.741000000
O     0.832000000     5.803000000     2.524000000
H     1.333000000     5.431000000     3.250000000
H     0.676000000     5.063000000     1.937000000
O    -2.365000000     4.145000000    -0.208000000
H    -2.961000000     3.396000000    -0.187000000
H    -1.710000000     3.948000000     0.462000000
O    -0.288000000    -0.973000000     2.993000000
H    -1.229000000    -1.138000000     2.939000000
H    -0.020000000    -0.814000000     2.088000000
O    -3.689000000    -5.900000000    -1.108000000
H    -3.678000000    -5.086000000    -0.606000000
H    -2.839000000    -6.303000000    -0.929000000
O    -1.008000000    -2.449000000    -7.037000000
H    -0.905000000    -2.220000000    -6.113000000
H    -1.829000000    -2.032000000    -7.297000000
O    -3.879000000    -1.766000000    -3.595000000
H    -3.189000000    -2.381000000    -3.842000000
H    -3.632000000    -0.945000000    -4.020000000
O     1.098000000    -5.363000000    -3.820000000
H     0.907000000    -5.398000000    -4.757000000
H     1.032000000    -4.435000000    -3.596000000
O    -0.441000000    -4.854000000     3.669000000
H     0.172000000    -4.253000000     4.092000000
H    -0.849000000    -5.329000000     4.394000000
O     0.236000000    -0.150000000    -5.478000000
H    -0.716000000    -0.094000000    -5.405000000
H     0.562000000     0.228000000    -4.661000000
O     0.725000000     5.822000000     5.644000000
H     0.138000000     6.566000000     5.511000000
H     0.275000000     5.086000000     5.228000000
O    -1.208000000    -7.469000000    -0.893000000
H    -1.295000000    -8.274000000    -0.384000000
H    -0.991000000    -6.798000000    -0.246000000
O     0.070000000     1.280000000    -2.626000000
H     0.361000000     0.498000000    -2.157000000
H    -0.874000000     1.317000000    -2.468000000
O     5.363000000     6.384000000     0.681000000
H     4.511000000     6.071000000     0.985000000
H     5.655000000     6.987000000     1.365000000
O    -3.973000000    -3.351000000     0.176000000
H    -4.715000000    -2.824000000     0.474000000
H    -3.224000000    -3.006000000     0.662000000
O     2.224000000     1.979000000     4.169000000
H     2.228000000     1.735000000     5.094000000
H     3.097000000     1.742000000     3.855000000
O    -3.437000000     5.221000000    -2.421000000
H    -2.944000000     6.020000000    -2.604000000
H    -2.961000000     4.806000000    -1.701000000
O     4.313000000     1.021000000     2.815000000
H     5.153000000     1.016000000     3.272000000
H     4.529000000     0.783000000     1.913000000
O     2.813000000     2.085000000    -3.730000000
H     3.156000000     1.788000000    -2.886000000
H     1.949000000     2.440000000    -3.525000000
O    -2.985000000     4.392000000     5.112000000
H    -2.119000000     4.043000000     5.319000000
H    -3.281000000     3.871000000     4.365000000
O    -0.216000000     3.457000000     4.670000000
H     0.326000000     2.670000000     4.727000000
H    -0.443000000     3.525000000     3.743000000
O     3.601000000     4.192000000     1.173000000
H     2.714000000     3.863000000     1.026000000
H     3.674000000     4.269000000     2.124000000
O    -0.383000000     7.854000000     1.324000000
H    -0.053000000     7.151000000     1.884000000
H    -0.253000000     7.532000000     0.432000000
O    -0.300000000     6.657000000    -1.105000000
H    -1.035000000     6.656000000    -1.718000000
H     0.195000000     5.868000000    -1.324000000
O    -6.153000000    -2.460000000    -1.478000000
H    -5.581000000    -2.940000000    -2.077000000
H    -6.074000000    -1.547000000    -1.753000000
O     3.506000000    -5.210000000     2.102000000
H     3.190000000    -4.707000000     2.853000000
H     4.454000000    -5.077000000     2.106000000
O     2.408000000     7.428000000    -0.045000000
H     2.599000000     6.555000000    -0.389000000
H     1.825000000     7.271000000     0.698000000
O     2.736000000    -1.188000000     3.800000000
H     1.798000000    -1.071000000     3.652000000
H     3.140000000    -0.416000000     3.404000000
O    -4.245000000     2.138000000    -0.548000000
H    -4.681000000     2.698000000     0.095000000
H    -4.908000000     1.491000000    -0.790000000
O     5.716000000    -0.133000000    -2.688000000
H     5.063000000    -0.545000000    -3.253000000
H     6.046000000     0.605000000    -3.201000000
O    -3.844000000    -6.236000000     2.220000000
H    -4.624000000    -6.303000000     1.668000000
H    -3.537000000    -5.339000000     2.092000000
O     3.576000000     4.546000000     4.274000000
H     3.944000000     4.448000000     5.152000000
H     2.963000000     3.816000000     4.188000000
O     6.342000000     2.940000000     0.760000000
H     7.072000000     3.217000000     1.314000000
H     5.804000000     3.725000000     0.661000000
