158
-3026.14656
C    -1.001000000     0.538000000    -0.834000000
H    -1.863000000     0.915000000    -1.377000000
C    -1.230000000    -0.422000000     0.146000000
H    -2.212000000    -0.852000000     0.326000000
C    -0.115000000    -0.913000000     0.880000000
H    -0.168000000    -1.748000000     1.564000000
C     1.168000000    -0.305000000     0.641000000
H     2.032000000    -0.514000000     1.266000000
C     1.299000000     0.627000000    -0.367000000
H     2.290000000     1.070000000    -0.432000000
C     0.241000000     1.041000000    -1.175000000
C     0.418000000     2.019000000    -2.323000000
O    -0.532000000     2.377000000    -3.025000000
O     1.498000000     2.568000000    -2.567000000
O     0.522000000    -6.163000000     0.683000000
H     0.626000000    -6.068000000    -0.264000000
H     0.795000000    -5.317000000     1.039000000
O     2.448000000    -1.458000000     3.702000000
H     2.382000000    -0.748000000     4.341000000
H     3.280000000    -1.300000000     3.255000000
O    -5.531000000    -2.697000000    -0.148000000
H    -5.448000000    -2.346000000     0.738000000
H    -4.719000000    -3.184000000    -0.290000000
O    -2.379000000     4.231000000    -4.194000000
H    -1.902000000     3.449000000    -3.916000000
H    -3.179000000     3.894000000    -4.596000000
O     3.001000000    -0.472000000    -4.301000000
H     2.112000000    -0.208000000    -4.537000000
H     3.416000000     0.333000000    -3.991000000
O    -5.003000000     0.472000000     1.453000000
H    -4.800000000     0.630000000     0.531000000
H    -5.704000000    -0.179000000     1.435000000
O     4.462000000    -2.125000000    -1.859000000
H     4.089000000    -2.912000000    -2.254000000
H     3.837000000    -1.431000000    -2.070000000
O    -4.568000000     0.439000000    -1.157000000
H    -4.313000000     0.698000000    -2.043000000
H    -4.915000000    -0.448000000    -1.257000000
O     4.346000000    -2.391000000     1.301000000
H     4.842000000    -2.497000000     2.113000000
H     4.700000000    -3.059000000     0.715000000
O     2.765000000    -4.389000000     4.185000000
H     3.032000000    -3.478000000     4.309000000
H     3.319000000    -4.885000000     4.788000000
O    -4.116000000    -5.131000000    -0.342000000
H    -4.269000000    -6.076000000    -0.334000000
H    -3.338000000    -5.018000000    -0.887000000
O    -3.317000000    -2.260000000     2.747000000
H    -3.054000000    -1.897000000     3.593000000
H    -4.268000000    -2.151000000     2.725000000
O     4.006000000     1.855000000    -3.188000000
H     3.147000000     2.226000000    -2.988000000
H     4.604000000     2.295000000    -2.584000000
O    -5.086000000     4.873000000    -1.837000000
H    -4.140000000     4.874000000    -1.981000000
H    -5.462000000     4.813000000    -2.715000000
O    -3.733000000     1.028000000    -3.590000000
H    -4.121000000     0.833000000    -4.443000000
H    -2.794000000     1.098000000    -3.764000000
O     1.196000000    -6.364000000     5.574000000
H     1.477000000    -6.968000000     4.886000000
H     1.359000000    -5.494000000     5.209000000
O    -1.019000000     5.995000000    -5.865000000
H    -1.589000000     5.623000000    -5.192000000
H    -1.584000000     6.593000000    -6.353000000
O    -1.740000000    -4.040000000     1.591000000
H    -2.261000000    -3.363000000     2.021000000
H    -1.854000000    -3.872000000     0.655000000
O    -2.987000000    -1.359000000    -5.826000000
H    -2.224000000    -0.947000000    -5.421000000
H    -3.533000000    -0.626000000    -6.109000000
O    -1.120000000     0.083000000    -4.304000000
H    -0.472000000     0.133000000    -5.007000000
H    -0.872000000     0.782000000    -3.699000000
O    -2.151000000    -7.232000000     0.746000000
H    -1.609000000    -6.486000000     1.003000000
H    -1.524000000    -7.923000000     0.536000000
O     1.177000000    -2.807000000    -1.065000000
H     1.367000000    -3.093000000    -0.171000000
H     0.626000000    -2.033000000    -0.957000000
O     7.342000000     1.800000000     0.714000000
H     6.506000000     1.583000000     1.127000000
H     7.944000000     1.122000000     1.021000000
O    -2.148000000    -4.766000000    -2.089000000
H    -2.390000000    -4.094000000    -2.725000000
H    -1.893000000    -5.519000000    -2.621000000
O    -0.373000000     7.720000000    -3.026000000
H     0.261000000     7.361000000    -2.406000000
H    -0.844000000     6.956000000    -3.357000000
O     0.836000000     5.030000000    -3.556000000
H     0.300000000     5.087000000    -4.347000000
H     0.935000000     4.091000000    -3.401000000
O    -0.213000000    -2.117000000     4.111000000
H     0.646000000    -2.052000000     3.695000000
H    -0.424000000    -3.050000000     4.082000000
O    -2.330000000     3.368000000    -7.437000000
H    -1.430000000     3.676000000    -7.335000000
H    -2.830000000     4.156000000    -7.650000000
O     4.939000000     0.790000000    -0.246000000
H     5.414000000     0.222000000    -0.853000000
H     4.328000000     0.204000000     0.202000000
O    -4.744000000    -2.258000000     5.403000000
H    -4.579000000    -1.356000000     5.129000000
H    -5.402000000    -2.181000000     6.095000000
O    -1.288000000     3.591000000     2.920000000
H    -2.232000000     3.739000000     2.977000000
H    -1.188000000     2.643000000     3.014000000
O     2.676000000     2.704000000    -5.946000000
H     3.061000000     2.135000000    -5.280000000
H     3.159000000     3.527000000    -5.866000000
O    -0.641000000     0.686000000     3.503000000
H    -0.229000000     0.485000000     2.663000000
H    -1.034000000    -0.141000000     3.781000000
O     3.522000000     3.200000000     1.746000000
H     3.163000000     3.560000000     0.935000000
H     3.632000000     2.266000000     1.566000000
O    -4.015000000     3.265000000     2.964000000
H    -4.180000000     2.325000000     2.888000000
H    -4.861000000     3.672000000     2.773000000
O     5.305000000     4.878000000    -5.180000000
H     4.742000000     5.179000000    -4.467000000
H     6.118000000     4.616000000    -4.749000000
O    -2.098000000     3.915000000    -0.971000000
H    -1.455000000     3.817000000    -1.673000000
H    -1.893000000     3.208000000    -0.359000000
O     2.903000000     4.223000000    -0.852000000
H     2.289000000     3.905000000    -1.514000000
H     2.661000000     5.140000000    -0.722000000
O     3.678000000     5.577000000    -3.171000000
H     3.180000000     6.178000000    -3.726000000
H     3.050000000     4.897000000    -2.931000000
O     0.682000000     0.349000000    -6.399000000
H     1.419000000     0.941000000    -6.549000000
H    -0.014000000     0.685000000    -6.964000000
O     1.863000000    -3.821000000     1.381000000
H     2.090000000    -4.190000000     2.235000000
H     2.582000000    -3.222000000     1.180000000
O    -0.842000000    -4.716000000     4.089000000
H    -1.024000000    -4.708000000     3.150000000
H    -1.615000000    -5.123000000     4.480000000
O    -2.330000000     1.430000000     5.390000000
H    -1.668000000     1.372000000     4.701000000
H    -3.107000000     1.020000000     5.011000000
O     1.544000000    -2.148000000     6.661000000
H     1.877000000    -1.379000000     6.199000000
H     0.794000000    -2.435000000     6.139000000
O     5.446000000     3.522000000    -1.311000000
H     5.762000000     2.956000000    -0.606000000
H     4.691000000     3.974000000    -0.935000000
O    -5.914000000     2.909000000    -0.428000000
H    -5.635000000     3.727000000    -0.840000000
H    -5.240000000     2.275000000    -0.672000000
O    -4.561000000     0.354000000     4.307000000
H    -4.725000000     0.378000000     3.364000000
H    -5.329000000     0.774000000     4.694000000
O     2.451000000     0.397000000     5.960000000
H     2.121000000     1.122000000     5.430000000
H     2.853000000     0.819000000     6.719000000
