158
-3037.79915
C    -1.333000000     0.630000000     0.248000000
H    -2.363000000     0.973000000     0.296000000
C    -1.122000000    -0.493000000    -0.495000000
H    -1.969000000    -1.041000000    -0.900000000
C     0.144000000    -1.011000000    -0.649000000
H     0.302000000    -1.990000000    -1.096000000
C     1.222000000    -0.378000000    -0.032000000
H     2.244000000    -0.712000000    -0.190000000
C     1.073000000     0.791000000     0.661000000
H     1.905000000     1.279000000     1.163000000
C    -0.206000000     1.292000000     0.809000000
C    -0.451000000     2.553000000     1.595000000
O    -1.600000000     2.681000000     2.103000000
O     0.463000000     3.209000000     2.061000000
O    -0.325000000    -4.128000000    -3.278000000
H    -1.223000000    -4.195000000    -2.954000000
H     0.204000000    -3.987000000    -2.493000000
O     4.638000000    -4.211000000    -4.324000000
H     4.719000000    -3.482000000    -3.710000000
H     3.773000000    -4.097000000    -4.718000000
O     5.902000000     0.559000000    -1.928000000
H     5.084000000     0.982000000    -1.666000000
H     6.052000000     0.861000000    -2.823000000
O    -4.358000000    -1.249000000     1.248000000
H    -4.653000000    -1.889000000     1.896000000
H    -4.004000000    -0.527000000     1.768000000
O    -5.002000000    -0.032000000    -4.193000000
H    -4.784000000     0.876000000    -3.981000000
H    -4.871000000    -0.507000000    -3.372000000
O    -4.633000000     2.871000000    -3.448000000
H    -4.553000000     2.265000000    -2.712000000
H    -5.333000000     3.470000000    -3.190000000
O    -3.464000000     4.280000000     3.847000000
H    -3.044000000     3.578000000     3.350000000
H    -3.380000000     4.009000000     4.762000000
O     1.521000000     7.245000000     4.461000000
H     1.065000000     6.571000000     3.957000000
H     2.367000000     7.339000000     4.024000000
O     1.411000000    -4.844000000    -1.114000000
H     1.460000000    -5.735000000    -0.766000000
H     2.102000000    -4.369000000    -0.653000000
O    -4.376000000    -3.954000000    -3.105000000
H    -3.918000000    -4.656000000    -2.644000000
H    -3.927000000    -3.887000000    -3.948000000
O    -2.910000000     0.379000000     2.839000000
H    -2.505000000     1.204000000     2.570000000
H    -2.173000000    -0.185000000     3.071000000
O    -4.548000000     6.176000000     2.257000000
H    -5.480000000     6.292000000     2.442000000
H    -4.235000000     5.603000000     2.957000000
O    -1.918000000     5.033000000    -2.847000000
H    -1.745000000     5.918000000    -2.526000000
H    -2.658000000     4.728000000    -2.322000000
O    -1.423000000    -5.119000000    -0.636000000
H    -1.324000000    -5.404000000     0.273000000
H    -0.527000000    -4.962000000    -0.937000000
O    -0.736000000     5.709000000     2.283000000
H    -1.614000000     5.735000000     2.664000000
H    -0.519000000     4.777000000     2.245000000
O    -4.517000000     2.294000000     1.486000000
H    -4.513000000     1.812000000     2.314000000
H    -4.099000000     3.129000000     1.694000000
O    -4.358000000     5.266000000    -0.184000000
H    -4.143000000     6.020000000    -0.732000000
H    -4.410000000     5.622000000     0.703000000
O     1.997000000    -3.195000000    -4.905000000
H     2.291000000    -2.966000000    -4.023000000
H     1.041000000    -3.166000000    -4.853000000
O    -0.990000000     2.326000000     6.902000000
H    -0.329000000     1.915000000     6.344000000
H    -0.752000000     3.253000000     6.911000000
O    -4.989000000    -1.614000000    -1.504000000
H    -4.927000000    -2.494000000    -1.876000000
H    -4.764000000    -1.727000000    -0.581000000
O    -4.857000000     1.508000000    -1.086000000
H    -4.776000000     1.956000000    -0.244000000
H    -4.475000000     0.644000000    -0.935000000
O     3.331000000     1.384000000    -1.386000000
H     2.567000000     1.614000000    -1.914000000
H     3.081000000     1.611000000    -0.491000000
O    -1.089000000     5.105000000     5.556000000
H    -0.864000000     6.035000000     5.558000000
H    -0.329000000     4.676000000     5.162000000
O     5.959000000    -0.263000000     0.646000000
H     6.738000000     0.271000000     0.801000000
H     5.799000000    -0.186000000    -0.295000000
O     0.776000000     1.279000000    -2.939000000
H    -0.064000000     1.053000000    -2.540000000
H     0.641000000     2.155000000    -3.302000000
O     3.143000000    -0.884000000    -3.199000000
H     3.708000000    -0.395000000    -3.797000000
H     2.601000000    -0.216000000    -2.781000000
O    -0.313000000    -1.164000000     3.092000000
H    -0.304000000    -1.584000000     2.232000000
H     0.516000000    -0.688000000     3.135000000
O     3.239000000    -1.268000000    -6.833000000
H     2.466000000    -0.781000000    -7.120000000
H     2.902000000    -1.898000000    -6.196000000
O    -2.931000000    -6.715000000    -3.113000000
H    -2.242000000    -6.403000000    -3.699000000
H    -3.737000000    -6.625000000    -3.621000000
O     1.172000000     1.191000000     5.992000000
H     1.097000000     0.740000000     6.833000000
H     1.640000000     0.573000000     5.430000000
O     4.029000000    -4.620000000    -0.127000000
H     4.607000000    -5.220000000    -0.599000000
H     3.820000000    -5.079000000     0.686000000
O     2.279000000    -0.171000000     3.801000000
H     2.953000000     0.376000000     3.398000000
H     2.744000000    -0.670000000     4.472000000
O     2.894000000     5.087000000    -1.972000000
H     2.680000000     4.591000000    -1.182000000
H     2.198000000     4.865000000    -2.590000000
O     1.218000000     3.734000000     4.654000000
H     1.050000000     2.956000000     5.185000000
H     1.060000000     3.449000000     3.754000000
O     4.936000000    -2.447000000     2.127000000
H     5.536000000    -1.808000000     1.744000000
H     5.135000000    -3.266000000     1.672000000
O     3.930000000     5.399000000     5.037000000
H     4.241000000     4.824000000     5.737000000
H     3.481000000     4.813000000     4.427000000
O     2.482000000     4.262000000     0.415000000
H     1.719000000     3.980000000     0.919000000
H     2.770000000     5.067000000     0.847000000
O     0.530000000     7.214000000     0.318000000
H     0.186000000     6.513000000     0.872000000
H     0.232000000     8.020000000     0.740000000
O    -5.212000000    -4.181000000     1.219000000
H    -4.572000000    -3.689000000     1.733000000
H    -4.684000000    -4.694000000     0.607000000
O    -1.573000000    -5.529000000     2.158000000
H    -2.210000000    -4.881000000     2.456000000
H    -0.772000000    -5.316000000     2.636000000
O    -5.080000000     1.210000000     4.235000000
H    -5.867000000     0.697000000     4.047000000
H    -4.371000000     0.567000000     4.238000000
O     2.187000000    -2.994000000     1.899000000
H     2.213000000    -2.215000000     2.454000000
H     3.099000000    -3.140000000     1.648000000
O     5.105000000    -2.586000000    -2.306000000
H     4.466000000    -1.873000000    -2.303000000
H     4.870000000    -3.121000000    -1.548000000
O    -0.938000000    -6.198000000    -4.898000000
H    -0.963000000    -5.742000000    -5.739000000
H    -0.521000000    -5.576000000    -4.301000000
O     5.555000000     0.972000000     4.850000000
H     4.843000000     0.461000000     5.236000000
H     5.234000000     1.212000000     3.981000000
O     0.451000000    -4.384000000     3.806000000
H     1.015000000    -3.894000000     3.207000000
H     0.914000000    -4.360000000     4.643000000
O    -2.580000000    -3.433000000    -5.220000000
H    -1.743000000    -3.419000000    -4.755000000
H    -2.610000000    -2.595000000    -5.682000000
O     4.239000000     1.370000000     2.282000000
H     4.611000000     0.772000000     1.633000000
H     4.572000000     2.232000000     2.032000000
