158
-3034.81917
C    -0.745000000     0.838000000     1.040000000
H    -1.300000000     1.495000000     1.704000000
C    -1.147000000    -0.430000000     0.626000000
H    -2.084000000    -0.852000000     0.981000000
C    -0.310000000    -1.145000000    -0.236000000
H    -0.552000000    -2.174000000    -0.378000000
C     0.905000000    -0.662000000    -0.624000000
H     1.611000000    -1.228000000    -1.226000000
C     1.202000000     0.690000000    -0.391000000
H     2.137000000     1.052000000    -0.809000000
C     0.403000000     1.433000000     0.434000000
C     0.699000000     2.879000000     0.626000000
O    -0.206000000     3.628000000     0.903000000
O     1.813000000     3.437000000     0.409000000
O     2.346000000    -4.342000000    -3.282000000
H     1.810000000    -5.023000000    -2.874000000
H     2.738000000    -3.873000000    -2.545000000
O    -5.242000000     1.958000000     4.377000000
H    -4.978000000     1.718000000     3.489000000
H    -4.474000000     2.397000000     4.744000000
O    -1.618000000     4.344000000     3.002000000
H    -1.284000000     3.879000000     2.236000000
H    -1.759000000     5.240000000     2.696000000
O    -3.717000000     0.000000000    -0.961000000
H    -3.908000000     0.696000000    -1.590000000
H    -2.772000000     0.058000000    -0.819000000
O     4.212000000     3.736000000    -3.032000000
H     4.271000000     2.795000000    -2.868000000
H     3.425000000     4.012000000    -2.564000000
O    -2.403000000     6.831000000     1.867000000
H    -1.496000000     6.800000000     1.565000000
H    -2.924000000     6.807000000     1.063000000
O     1.497000000    -4.886000000     2.790000000
H     1.434000000    -4.268000000     2.062000000
H     0.973000000    -5.638000000     2.512000000
O     1.843000000    -4.202000000    -5.975000000
H     2.206000000    -4.530000000    -5.152000000
H     2.465000000    -3.534000000    -6.262000000
O    -4.148000000    -2.323000000    -2.466000000
H    -3.306000000    -2.731000000    -2.668000000
H    -3.919000000    -1.484000000    -2.067000000
O    -5.118000000     5.337000000     0.235000000
H    -5.840000000     4.870000000     0.655000000
H    -4.401000000     4.704000000     0.218000000
O    -3.064000000     3.180000000     5.167000000
H    -2.676000000     3.738000000     5.841000000
H    -2.724000000     3.528000000     4.342000000
O    -2.421000000     7.305000000    -0.803000000
H    -1.524000000     6.978000000    -0.735000000
H    -2.326000000     8.257000000    -0.846000000
O     3.348000000     3.400000000    -5.613000000
H     3.668000000     3.343000000    -4.713000000
H     2.912000000     4.251000000    -5.659000000
O     3.519000000    -1.417000000     1.884000000
H     3.822000000    -2.028000000     2.555000000
H     4.226000000    -1.402000000     1.238000000
O     2.184000000     7.667000000    -0.304000000
H     2.069000000     8.078000000    -1.161000000
H     1.295000000     7.464000000    -0.014000000
O    -1.875000000    -3.769000000    -3.114000000
H    -1.788000000    -4.198000000    -2.263000000
H    -1.966000000    -4.490000000    -3.737000000
O     4.194000000     1.228000000     1.787000000
H     4.039000000     0.284000000     1.818000000
H     3.457000000     1.607000000     2.268000000
O    -1.260000000     0.563000000    -2.561000000
H    -0.602000000     0.405000000    -1.884000000
H    -1.092000000    -0.111000000    -3.220000000
O     2.272000000     5.077000000    -1.362000000
H     2.623000000     5.810000000    -0.854000000
H     2.200000000     4.362000000    -0.730000000
O    -3.621000000    -1.717000000     4.070000000
H    -2.830000000    -2.230000000     4.233000000
H    -3.623000000    -1.054000000     4.760000000
O    -2.601000000     3.152000000    -2.639000000
H    -3.297000000     3.139000000    -3.296000000
H    -2.115000000     2.341000000    -2.788000000
O     4.015000000     0.797000000    -2.681000000
H     3.301000000     0.196000000    -2.894000000
H     4.760000000     0.473000000    -3.188000000
O     0.028000000    -1.311000000    -4.134000000
H     0.399000000    -0.839000000    -4.880000000
H    -0.446000000    -2.044000000    -4.527000000
O     0.549000000     3.023000000     4.382000000
H    -0.173000000     3.387000000     3.870000000
H     1.336000000     3.393000000     3.982000000
O    -5.602000000    -1.518000000     2.303000000
H    -5.232000000    -2.015000000     1.573000000
H    -4.865000000    -1.379000000     2.897000000
O    -0.768000000     0.715000000     5.860000000
H    -0.425000000    -0.093000000     5.478000000
H    -0.577000000     1.388000000     5.207000000
O    -0.418000000    -6.519000000     1.603000000
H    -0.269000000    -7.464000000     1.607000000
H    -0.241000000    -6.252000000     0.701000000
O     4.244000000     7.359000000     2.125000000
H     4.431000000     8.203000000     2.538000000
H     3.453000000     7.047000000     2.564000000
O     5.935000000    -1.419000000     0.456000000
H     6.358000000    -0.756000000    -0.090000000
H     6.658000000    -1.853000000     0.909000000
O     3.157000000     4.008000000     2.681000000
H     2.767000000     3.765000000     1.841000000
H     4.089000000     4.115000000     2.490000000
O    -4.026000000     1.716000000     2.060000000
H    -3.951000000     0.944000000     1.500000000
H    -3.746000000     2.443000000     1.505000000
O    -0.548000000     5.153000000    -2.495000000
H    -1.188000000     4.442000000    -2.472000000
H     0.024000000     4.984000000    -1.746000000
O     5.482000000    -2.714000000    -2.154000000
H     6.410000000    -2.772000000    -1.924000000
H     5.086000000    -2.230000000    -1.429000000
O     5.448000000     1.727000000    -0.447000000
H     5.045000000     1.232000000    -1.160000000
H     4.972000000     1.450000000     0.336000000
O    -4.799000000    -3.065000000     0.230000000
H    -4.027000000    -3.408000000     0.680000000
H    -4.490000000    -2.855000000    -0.651000000
O    -2.794000000    -4.296000000     1.870000000
H    -2.143000000    -3.951000000     2.480000000
H    -2.977000000    -5.180000000     2.188000000
O    -2.167000000    -5.004000000    -0.642000000
H    -2.461000000    -4.917000000     0.265000000
H    -2.446000000    -5.882000000    -0.901000000
O    -3.058000000     3.600000000     0.240000000
H    -2.222000000     3.851000000     0.631000000
H    -2.883000000     3.568000000    -0.701000000
O     0.359000000    -1.424000000     5.008000000
H     1.014000000    -1.757000000     5.621000000
H     0.665000000    -1.715000000     4.149000000
O     2.633000000    -1.828000000    -3.820000000
H     2.571000000    -2.779000000    -3.913000000
H     1.729000000    -1.542000000    -3.684000000
O     0.140000000     6.333000000     0.908000000
H     0.117000000     5.387000000     0.765000000
H     0.614000000     6.440000000     1.732000000
O    -6.286000000     0.429000000     0.108000000
H    -6.101000000     0.607000000     1.030000000
H    -5.425000000     0.292000000    -0.287000000
O     1.851000000     6.446000000     3.114000000
H     1.256000000     6.655000000     3.835000000
H     2.202000000     5.583000000     3.337000000
O     0.966000000    -1.632000000     2.383000000
H     1.883000000    -1.397000000     2.246000000
H     0.476000000    -1.008000000     1.848000000
O     2.767000000    -3.416000000    -0.380000000
H     2.688000000    -2.760000000     0.312000000
H     3.033000000    -4.215000000     0.075000000
O    -0.110000000     6.134000000     4.827000000
H    -0.139000000     6.256000000     5.776000000
H    -0.817000000     5.516000000     4.643000000
O     5.085000000     6.587000000    -0.299000000
H     4.800000000     7.030000000     0.500000000
H     4.661000000     5.730000000    -0.262000000
O    -1.550000000    -3.432000000     4.110000000
H    -0.938000000    -2.773000000     4.437000000
H    -1.344000000    -4.221000000     4.612000000
