158
-3056.92553
C    -0.873000000     1.080000000     0.574000000
H    -1.605000000     1.702000000     1.081000000
C    -0.784000000    -0.180000000     1.126000000
H    -1.395000000    -0.502000000     1.965000000
C     0.027000000    -1.134000000     0.443000000
H     0.025000000    -2.286000000     0.702000000
C     0.821000000    -0.764000000    -0.595000000
H     1.384000000    -1.489000000    -1.176000000
C     0.732000000     0.482000000    -1.147000000
H     1.328000000     0.823000000    -1.990000000
C    -0.105000000     1.453000000    -0.522000000
C    -0.071000000     2.861000000    -1.111000000
O    -0.866000000     3.745000000    -0.696000000
O     0.943000000     3.199000000    -1.701000000
O     2.481000000    -2.973000000    -2.904000000
H     2.475000000    -3.523000000    -2.120000000
H     2.547000000    -3.593000000    -3.630000000
O    -1.007000000    -6.873000000     4.324000000
H    -1.004000000    -6.955000000     5.278000000
H    -1.105000000    -5.934000000     4.165000000
O     4.174000000    -1.661000000    -0.702000000
H     3.466000000    -2.272000000    -0.905000000
H     4.950000000    -2.051000000    -1.105000000
O    -5.296000000     4.569000000    -0.100000000
H    -4.633000000     4.959000000     0.470000000
H    -6.129000000     4.782000000     0.322000000
O    -2.393000000    -0.568000000    -1.972000000
H    -3.023000000    -0.852000000    -1.310000000
H    -1.691000000    -0.153000000    -1.472000000
O    -5.725000000     0.960000000     1.599000000
H    -6.309000000     1.714000000     1.513000000
H    -5.124000000     1.202000000     2.304000000
O     1.873000000     3.051000000     2.882000000
H     1.008000000     2.738000000     3.145000000
H     2.362000000     2.256000000     2.671000000
O     2.232000000     4.751000000    -6.746000000
H     1.796000000     4.554000000    -5.917000000
H     2.634000000     3.923000000    -7.008000000
O     3.830000000     2.067000000    -6.615000000
H     3.490000000     1.674000000    -5.811000000
H     4.528000000     2.650000000    -6.319000000
O     5.311000000     0.960000000    -0.949000000
H     4.760000000     1.687000000    -1.239000000
H     4.770000000     0.181000000    -1.082000000
O    -3.232000000     3.233000000    -1.672000000
H    -3.847000000     3.768000000    -1.170000000
H    -2.384000000     3.389000000    -1.255000000
O    -1.098000000    -4.016000000     3.871000000
H    -1.385000000    -4.346000000     3.019000000
H    -1.720000000    -3.319000000     4.080000000
O    -4.948000000    -0.926000000    -0.549000000
H    -5.256000000    -0.311000000     0.115000000
H    -5.098000000    -0.476000000    -1.381000000
O     4.566000000     5.228000000    -1.210000000
H     5.485000000     5.371000000    -1.436000000
H     4.259000000     6.082000000    -0.903000000
O    -3.449000000     7.145000000    -2.892000000
H    -2.861000000     6.889000000    -2.182000000
H    -2.865000000     7.403000000    -3.606000000
O    -0.377000000    -7.059000000     0.547000000
H     0.037000000    -6.683000000    -0.230000000
H    -0.423000000    -7.997000000     0.364000000
O     3.508000000     2.611000000    -1.799000000
H     3.971000000     3.376000000    -1.457000000
H     2.584000000     2.791000000    -1.622000000
O    -0.737000000     2.619000000     3.684000000
H    -0.827000000     3.251000000     2.971000000
H    -1.152000000     3.044000000     4.434000000
O     1.062000000    -6.418000000    -2.024000000
H     0.951000000    -7.078000000    -2.709000000
H     1.980000000    -6.156000000    -2.091000000
O     1.334000000     4.227000000    -4.138000000
H     1.083000000     3.755000000    -3.344000000
H     1.628000000     5.082000000    -3.825000000
O    -0.763000000    -4.384000000    -2.566000000
H    -0.890000000    -3.740000000    -1.869000000
H    -0.008000000    -4.898000000    -2.282000000
O    -2.657000000    -1.531000000     7.133000000
H    -3.478000000    -1.270000000     7.549000000
H    -2.886000000    -1.665000000     6.213000000
O     1.316000000    -6.324000000     2.545000000
H     0.754000000    -6.726000000     1.884000000
H     0.767000000    -6.273000000     3.327000000
O     2.726000000     1.197000000    -4.142000000
H     1.795000000     1.396000000    -4.244000000
H     2.992000000     1.691000000    -3.367000000
O     3.604000000    -3.265000000     6.091000000
H     3.117000000    -3.317000000     5.269000000
H     3.447000000    -2.376000000     6.408000000
O    -0.644000000     4.069000000    -5.950000000
H     0.036000000     4.019000000    -5.278000000
H    -1.415000000     3.679000000    -5.539000000
O    -4.644000000    -5.792000000     3.130000000
H    -5.130000000    -5.813000000     2.306000000
H    -3.800000000    -5.402000000     2.901000000
O    -1.099000000     4.612000000     1.750000000
H    -0.293000000     5.125000000     1.818000000
H    -1.046000000     4.195000000     0.890000000
O    -1.656000000     1.100000000    -6.605000000
H    -0.925000000     1.235000000    -6.003000000
H    -1.253000000     1.086000000    -7.473000000
O     0.827000000    -0.169000000     4.320000000
H     0.919000000     0.413000000     5.075000000
H     0.141000000     0.235000000     3.788000000
O     3.029000000    -4.429000000     2.198000000
H     2.371000000    -5.122000000     2.249000000
H     2.598000000    -3.662000000     2.575000000
O     2.805000000    -4.124000000    -0.491000000
H     3.011000000    -4.204000000     0.440000000
H     3.538000000    -4.550000000    -0.936000000
O    -3.541000000     5.898000000     1.388000000
H    -3.459000000     6.811000000     1.664000000
H    -2.643000000     5.566000000     1.387000000
O     1.376000000     5.642000000     2.024000000
H     1.605000000     5.708000000     1.097000000
H     1.698000000     4.780000000     2.289000000
O     3.463000000     0.781000000     1.993000000
H     4.381000000     0.513000000     2.031000000
H     3.058000000     0.162000000     1.385000000
O     1.332000000     5.591000000    -0.486000000
H     1.293000000     6.102000000    -1.294000000
H     1.159000000     4.691000000    -0.763000000
O     4.062000000    -1.146000000    -4.806000000
H     3.828000000    -1.686000000    -4.051000000
H     3.466000000    -0.398000000    -4.760000000
O     1.724000000     6.837000000    -3.034000000
H     2.506000000     6.959000000    -3.572000000
H     1.482000000     7.721000000    -2.759000000
O    -4.090000000    -4.603000000    -0.277000000
H    -4.934000000    -4.229000000    -0.023000000
H    -4.185000000    -4.798000000    -1.209000000
O    -3.113000000    -2.064000000     4.585000000
H    -3.724000000    -2.775000000     4.394000000
H    -3.424000000    -1.332000000     4.053000000
O    -2.376000000     2.973000000    -4.345000000
H    -2.735000000     3.255000000    -3.504000000
H    -2.877000000     2.188000000    -4.568000000
O    -3.948000000     1.344000000     3.485000000
H    -3.092000000     1.754000000     3.362000000
H    -4.157000000     1.496000000     4.407000000
O    -0.003000000     1.156000000    -4.266000000
H    -0.686000000     1.702000000    -3.876000000
H    -0.283000000     0.258000000    -4.087000000
O    -1.610000000     6.552000000    -1.195000000
H    -0.972000000     7.137000000    -0.786000000
H    -1.232000000     5.678000000    -1.097000000
O    -4.975000000    -2.912000000     1.785000000
H    -5.853000000    -2.560000000     1.930000000
H    -4.622000000    -2.388000000     1.066000000
O     1.640000000    -2.903000000     3.990000000
H     1.466000000    -1.967000000     4.084000000
H     0.784000000    -3.288000000     3.800000000
O     0.186000000    -1.570000000    -4.370000000
H     0.673000000    -1.798000000    -5.162000000
H     0.795000000    -1.753000000    -3.654000000
O    -2.222000000    -5.151000000     1.678000000
H    -1.809000000    -5.888000000     1.229000000
H    -2.906000000    -4.857000000     1.077000000
