158
-3013.62167
C     1.236000000     0.546000000    -0.417000000
H     2.196000000     1.010000000    -0.629000000
C     0.761000000     0.539000000     0.883000000
H     1.338000000     1.038000000     1.657000000
C    -0.396000000    -0.145000000     1.197000000
H    -0.567000000    -0.302000000     2.261000000
C    -1.126000000    -0.665000000     0.123000000
H    -2.116000000    -1.106000000     0.207000000
C    -0.705000000    -0.397000000    -1.199000000
H    -1.382000000    -0.644000000    -2.013000000
C     0.465000000     0.151000000    -1.506000000
C     1.050000000     0.238000000    -2.934000000
O     0.390000000     0.235000000    -3.948000000
O     2.234000000     0.330000000    -2.984000000
O    -1.248000000    -4.648000000    -0.856000000
H    -1.718000000    -4.276000000    -0.110000000
H    -0.349000000    -4.339000000    -0.752000000
O     0.296000000     3.126000000    -3.981000000
H    -0.496000000     3.262000000    -3.462000000
H     0.387000000     2.174000000    -4.034000000
O     1.781000000     4.962000000     0.516000000
H     2.668000000     4.603000000     0.480000000
H     1.759000000     5.614000000    -0.184000000
O     0.805000000    -4.098000000     2.060000000
H     1.220000000    -4.960000000     2.061000000
H    -0.129000000    -4.282000000     2.159000000
O     2.520000000    -1.343000000     7.207000000
H     2.188000000    -1.676000000     6.373000000
H     2.880000000    -0.482000000     6.994000000
O    -2.004000000     3.671000000    -2.724000000
H    -2.072000000     3.299000000    -1.845000000
H    -2.081000000     4.616000000    -2.591000000
O     4.426000000    -0.055000000     0.268000000
H     4.678000000    -0.893000000    -0.119000000
H     4.785000000     0.602000000    -0.328000000
O     2.639000000    -2.558000000     4.069000000
H     1.794000000    -2.850000000     3.726000000
H     3.169000000    -3.354000000     4.110000000
O    -1.821000000     2.334000000    -7.079000000
H    -1.642000000     1.701000000    -7.774000000
H    -1.074000000     2.932000000    -7.102000000
O     0.195000000    -4.092000000     6.400000000
H     0.214000000    -3.561000000     5.604000000
H     0.531000000    -4.946000000     6.127000000
O    -4.346000000    -1.360000000    -1.511000000
H    -4.538000000    -2.005000000    -2.191000000
H    -4.055000000    -0.585000000    -1.991000000
O     4.987000000    -1.322000000     4.303000000
H     4.120000000    -1.714000000     4.405000000
H     5.413000000    -1.854000000     3.631000000
O     2.505000000    -2.322000000     0.404000000
H     1.697000000    -2.666000000     0.786000000
H     2.612000000    -1.461000000     0.807000000
O    -0.364000000    -2.331000000    -7.129000000
H    -0.321000000    -3.207000000    -7.513000000
H     0.424000000    -2.268000000    -6.589000000
O    -3.549000000     1.104000000    -2.449000000
H    -2.787000000     1.319000000    -1.911000000
H    -3.312000000     1.397000000    -3.328000000
O    -2.119000000     2.231000000    -0.157000000
H    -1.924000000     1.545000000     0.482000000
H    -1.473000000     2.914000000     0.021000000
O     1.821000000    -3.743000000    -1.657000000
H     1.798000000    -3.296000000    -2.503000000
H     2.298000000    -3.145000000    -1.083000000
O    -0.568000000    -2.422000000     4.272000000
H    -0.607000000    -2.037000000     3.397000000
H    -1.473000000    -2.400000000     4.584000000
O    -2.463000000     1.986000000     6.317000000
H    -1.682000000     2.143000000     5.788000000
H    -3.070000000     1.543000000     5.723000000
O     4.175000000     2.206000000     2.614000000
H     4.281000000     3.009000000     2.103000000
H     4.641000000     1.538000000     2.111000000
O    -3.773000000     4.864000000     0.914000000
H    -3.630000000     3.937000000     0.726000000
H    -3.561000000     4.956000000     1.842000000
O     4.615000000     2.699000000    -5.579000000
H     5.247000000     3.405000000    -5.721000000
H     4.998000000     1.943000000    -6.023000000
O    -2.065000000     0.739000000    -4.905000000
H    -1.192000000     0.527000000    -4.572000000
H    -1.905000000     1.348000000    -5.625000000
O    -2.083000000    -3.373000000    -4.485000000
H    -1.399000000    -2.750000000    -4.731000000
H    -2.667000000    -2.875000000    -3.913000000
O     2.270000000     4.018000000    -5.884000000
H     3.032000000     3.438000000    -5.874000000
H     1.608000000     3.552000000    -5.373000000
O    -3.374000000    -0.865000000     2.632000000
H    -3.237000000     0.058000000     2.842000000
H    -3.345000000    -1.310000000     3.479000000
O    -5.738000000    -2.678000000    -3.525000000
H    -5.188000000    -2.015000000    -3.943000000
H    -6.058000000    -3.215000000    -4.250000000
O    -3.775000000    -1.205000000    -4.491000000
H    -3.175000000    -0.479000000    -4.660000000
H    -3.961000000    -1.568000000    -5.357000000
O     6.861000000     1.004000000    -3.747000000
H     6.161000000     0.603000000    -3.231000000
H     7.179000000     1.723000000    -3.201000000
O     4.526000000    -0.883000000    -3.450000000
H     4.788000000    -1.216000000    -2.592000000
H     3.667000000    -0.488000000    -3.301000000
O    -0.726000000     4.599000000     0.261000000
H    -0.829000000     5.509000000     0.540000000
H     0.209000000     4.508000000     0.081000000
O     2.315000000     0.407000000     4.403000000
H     2.932000000     0.836000000     3.811000000
H     2.361000000    -0.519000000     4.167000000
O     2.010000000    -0.276000000    -6.118000000
H     1.522000000    -0.069000000    -6.915000000
H     1.455000000     0.043000000    -5.407000000
O    -5.024000000    -2.131000000     0.955000000
H    -4.762000000    -1.911000000     0.061000000
H    -4.424000000    -1.633000000     1.510000000
O     4.224000000    -2.913000000    -5.351000000
H     4.288000000    -2.191000000    -4.726000000
H     4.351000000    -3.700000000    -4.822000000
O     5.858000000     1.801000000    -0.970000000
H     5.406000000     2.295000000    -1.654000000
H     6.757000000     2.129000000    -0.991000000
O    -3.310000000    -2.244000000     4.824000000
H    -4.032000000    -1.863000000     5.324000000
H    -3.538000000    -3.169000000     4.741000000
O     1.913000000     5.487000000     3.228000000
H     2.818000000     5.685000000     3.472000000
H     1.965000000     5.230000000     2.307000000
O     2.647000000     1.771000000     6.948000000
H     2.770000000     1.543000000     6.027000000
H     3.460000000     2.211000000     7.196000000
O     7.023000000     1.084000000     1.679000000
H     6.415000000     1.138000000     0.942000000
H     7.666000000     0.426000000     1.412000000
O     1.084000000    -2.294000000    -4.125000000
H     0.537000000    -1.509000000    -4.108000000
H     1.854000000    -2.040000000    -4.633000000
O    -2.550000000    -3.484000000     1.390000000
H    -2.230000000    -2.670000000     1.779000000
H    -3.495000000    -3.467000000     1.542000000
O     0.559000000     3.324000000     4.219000000
H     1.154000000     2.575000000     4.204000000
H     1.103000000     4.068000000     3.960000000
O     3.662000000     2.647000000    -2.977000000
H     3.193000000     1.816000000    -2.908000000
H     3.868000000     2.730000000    -3.908000000
O     4.005000000     3.775000000     0.149000000
H     4.948000000     3.877000000     0.024000000
H     3.762000000     3.056000000    -0.435000000
O    -3.274000000     1.904000000     3.306000000
H    -3.024000000     2.806000000     3.508000000
H    -4.165000000     1.974000000     2.965000000
O    -2.982000000     4.876000000     3.536000000
H    -2.104000000     4.738000000     3.891000000
H    -3.445000000     5.357000000     4.222000000
O     4.949000000    -0.015000000    -6.020000000
H     4.773000000    -0.258000000    -5.111000000
H     4.083000000     0.101000000    -6.410000000
