158
-3015.21487
C     0.152000000     1.501000000    -0.169000000
H     0.074000000     2.562000000    -0.393000000
C    -0.492000000     0.809000000     0.892000000
H    -0.939000000     1.363000000     1.713000000
C    -0.547000000    -0.580000000     1.009000000
H    -0.980000000    -1.060000000     1.861000000
C     0.065000000    -1.319000000     0.054000000
H     0.167000000    -2.401000000     0.067000000
C     0.710000000    -0.652000000    -1.061000000
H     1.059000000    -1.306000000    -1.856000000
C     0.857000000     0.745000000    -1.136000000
C     1.300000000     1.434000000    -2.446000000
O     1.046000000     2.583000000    -2.775000000
O     1.965000000     0.686000000    -3.102000000
O    -5.805000000    -0.251000000     4.614000000
H    -6.507000000    -0.399000000     3.980000000
H    -6.108000000    -0.683000000     5.412000000
O     0.301000000    -3.234000000     3.203000000
H    -0.252000000    -3.495000000     2.466000000
H     1.070000000    -2.835000000     2.796000000
O     3.267000000    -4.911000000     0.496000000
H     3.794000000    -5.197000000     1.243000000
H     3.831000000    -5.055000000    -0.263000000
O    -3.322000000    -1.865000000    -0.372000000
H    -3.890000000    -1.634000000     0.363000000
H    -2.492000000    -1.427000000    -0.180000000
O    -2.971000000    -0.439000000     7.353000000
H    -2.661000000    -0.644000000     6.471000000
H    -3.009000000    -1.286000000     7.797000000
O     2.129000000     4.968000000    -1.125000000
H     1.753000000     4.159000000    -1.473000000
H     2.970000000     4.700000000    -0.754000000
O    -4.836000000     2.078000000     4.898000000
H    -4.537000000     2.263000000     4.008000000
H    -4.988000000     1.133000000     4.908000000
O    -1.272000000    -1.042000000    -3.871000000
H    -1.000000000    -0.125000000    -3.852000000
H    -1.651000000    -1.161000000    -4.742000000
O    -4.495000000    -1.254000000     1.834000000
H    -4.488000000    -1.682000000     2.690000000
H    -5.070000000    -0.497000000     1.950000000
O     4.390000000     4.858000000    -6.615000000
H     4.331000000     4.036000000    -7.102000000
H     4.241000000     4.607000000    -5.703000000
O    -3.879000000    -2.111000000     4.290000000
H    -2.979000000    -2.126000000     4.615000000
H    -4.294000000    -1.392000000     4.767000000
O    -2.340000000     4.836000000    -1.310000000
H    -1.544000000     4.934000000    -1.832000000
H    -2.696000000     3.987000000    -1.572000000
O    -0.959000000     1.870000000    -4.605000000
H    -1.465000000     2.573000000    -5.014000000
H    -0.179000000     2.306000000    -4.261000000
O    -3.022000000    -5.062000000    -1.861000000
H    -3.251000000    -4.574000000    -1.070000000
H    -2.624000000    -5.870000000    -1.538000000
O     0.729000000     5.819000000     3.127000000
H    -0.078000000     5.322000000     2.988000000
H     0.434000000     6.664000000     3.467000000
O    -1.521000000     5.301000000     1.471000000
H    -1.867000000     5.221000000     0.582000000
H    -0.649000000     5.680000000     1.354000000
O    -0.495000000    -6.580000000     3.546000000
H     0.419000000    -6.426000000     3.785000000
H    -0.450000000    -6.995000000     2.684000000
O    -1.147000000    -1.772000000     5.505000000
H    -0.619000000    -2.018000000     6.265000000
H    -0.519000000    -1.714000000     4.786000000
O     2.696000000    -3.475000000     5.579000000
H     2.053000000    -3.374000000     4.877000000
H     3.521000000    -3.647000000     5.125000000
O     4.195000000     0.601000000    -0.146000000
H     4.979000000     0.051000000    -0.123000000
H     4.040000000     0.758000000    -1.078000000
O     0.966000000     1.645000000    -6.840000000
H     1.274000000     0.897000000    -6.328000000
H     0.018000000     1.523000000    -6.896000000
O    -3.468000000     3.713000000     2.633000000
H    -2.685000000     4.013000000     2.172000000
H    -4.074000000     3.461000000     1.936000000
O     2.715000000     2.802000000    -5.018000000
H     2.236000000     2.314000000    -5.688000000
H     2.176000000     2.721000000    -4.231000000
O    -4.394000000    -4.502000000     0.701000000
H    -3.526000000    -4.569000000     1.099000000
H    -4.468000000    -3.585000000     0.440000000
O     0.117000000     4.696000000    -6.001000000
H     0.830000000     5.266000000    -6.289000000
H    -0.186000000     4.269000000    -6.803000000
O    -0.401000000    -1.892000000    -6.369000000
H     0.300000000    -1.353000000    -6.002000000
H    -0.011000000    -2.762000000    -6.460000000
O     3.394000000     3.150000000     0.554000000
H     3.485000000     2.236000000     0.285000000
H     2.773000000     3.125000000     1.282000000
O     3.433000000     2.863000000     4.091000000
H     3.282000000     2.240000000     3.380000000
H     2.773000000     2.642000000     4.748000000
O     1.382000000    -5.256000000    -2.187000000
H     2.225000000    -4.977000000    -2.543000000
H     0.735000000    -4.757000000    -2.686000000
O    -6.308000000    -0.139000000    -0.666000000
H    -6.272000000    -1.094000000    -0.705000000
H    -6.280000000     0.064000000     0.269000000
O    -0.569000000    -3.675000000    -3.205000000
H    -0.331000000    -2.775000000    -3.424000000
H    -1.523000000    -3.661000000    -3.135000000
O     5.159000000     2.812000000    -3.596000000
H     5.042000000     1.889000000    -3.373000000
H     4.394000000     3.029000000    -4.128000000
O    -1.313000000     7.609000000    -2.053000000
H    -2.089000000     7.911000000    -1.581000000
H    -1.432000000     6.663000000    -2.130000000
O    -2.510000000     2.019000000    -1.989000000
H    -2.252000000     1.312000000    -1.397000000
H    -2.161000000     1.757000000    -2.841000000
O    -1.733000000    -4.788000000     5.056000000
H    -1.348000000    -3.951000000     4.799000000
H    -1.194000000    -5.445000000     4.616000000
O     4.094000000    -2.712000000    -5.670000000
H     4.210000000    -2.812000000    -6.615000000
H     4.969000000    -2.507000000    -5.342000000
O     4.608000000     0.039000000    -2.736000000
H     4.927000000    -0.858000000    -2.636000000
H     3.754000000    -0.056000000    -3.157000000
O    -2.134000000    -4.717000000     1.896000000
H    -1.448000000    -4.964000000     1.275000000
H    -1.920000000    -5.201000000     2.694000000
O    -0.718000000    -6.319000000    -3.775000000
H    -1.271000000    -6.630000000    -3.058000000
H    -0.729000000    -5.366000000    -3.690000000
O    -0.341000000     4.786000000    -3.022000000
H     0.080000000     3.963000000    -2.776000000
H    -0.297000000     4.801000000    -3.978000000
O     3.453000000     0.328000000     2.615000000
H     3.747000000     0.591000000     1.742000000
H     3.077000000    -0.543000000     2.488000000
O     0.835000000     7.522000000    -0.277000000
H     0.121000000     7.706000000    -0.886000000
H     1.328000000     6.814000000    -0.691000000
O     1.737000000    -0.380000000    -5.416000000
H     2.453000000    -1.016000000    -5.411000000
H     1.709000000    -0.044000000    -4.520000000
O    -4.063000000    -0.825000000    -2.998000000
H    -3.129000000    -1.031000000    -2.949000000
H    -4.422000000    -1.144000000    -2.170000000
O     5.099000000     5.233000000    -1.714000000
H     4.351000000     5.784000000    -1.945000000
H     5.147000000     4.586000000    -2.418000000
O     2.747000000    -2.272000000     1.579000000
H     2.943000000    -3.160000000     1.278000000
H     2.489000000    -1.802000000     0.786000000
O     3.488000000    -4.379000000    -3.563000000
H     3.597000000    -3.571000000    -4.066000000
H     4.290000000    -4.448000000    -3.045000000
O     0.469000000    -4.894000000     0.688000000
H     1.313000000    -5.330000000     0.807000000
H     0.409000000    -4.742000000    -0.255000000
