158
-3038.78151
C    -0.218000000     1.423000000     0.006000000
H    -0.617000000     2.433000000    -0.026000000
C    -0.622000000     0.594000000     1.009000000
H    -1.360000000     0.880000000     1.754000000
C    -0.308000000    -0.733000000     0.935000000
H    -0.751000000    -1.461000000     1.721000000
C     0.356000000    -1.208000000    -0.196000000
H     0.524000000    -2.274000000    -0.326000000
C     0.846000000    -0.330000000    -1.105000000
H     1.346000000    -0.768000000    -1.965000000
C     0.543000000     0.996000000    -1.121000000
C     0.910000000     2.017000000    -2.189000000
O     0.464000000     3.141000000    -2.263000000
O     1.590000000     1.588000000    -3.047000000
O    -2.485000000     5.418000000    -0.483000000
H    -2.840000000     5.332000000    -1.368000000
H    -1.964000000     6.221000000    -0.511000000
O     1.365000000     8.276000000    -2.793000000
H     1.182000000     7.392000000    -3.111000000
H     2.089000000     8.163000000    -2.177000000
O     1.987000000    -1.657000000     3.317000000
H     2.636000000    -1.953000000     3.955000000
H     1.561000000    -2.460000000     3.018000000
O    -1.904000000    -1.346000000    -4.589000000
H    -1.214000000    -0.684000000    -4.553000000
H    -2.319000000    -1.307000000    -3.727000000
O    -0.857000000    -3.102000000     4.895000000
H    -1.607000000    -2.507000000     4.897000000
H    -0.323000000    -2.816000000     5.636000000
O     3.288000000     4.131000000     0.686000000
H     2.517000000     4.452000000     0.219000000
H     3.428000000     3.249000000     0.340000000
O     2.802000000     7.409000000    -0.431000000
H     2.509000000     7.941000000     0.309000000
H     2.229000000     6.642000000    -0.416000000
O    -4.539000000    -1.394000000    -0.083000000
H    -5.490000000    -1.344000000     0.006000000
H    -4.242000000    -1.790000000     0.736000000
O    -3.743000000     2.214000000    -0.773000000
H    -3.216000000     2.347000000    -1.562000000
H    -4.157000000     1.361000000    -0.903000000
O     0.912000000    -1.315000000     6.524000000
H     1.411000000    -2.118000000     6.375000000
H     1.353000000    -0.893000000     7.261000000
O    -0.957000000    -3.919000000    -4.758000000
H    -1.720000000    -4.287000000    -5.203000000
H    -1.231000000    -3.037000000    -4.503000000
O    -0.171000000     0.600000000    -4.653000000
H    -0.040000000     0.726000000    -5.593000000
H     0.658000000     0.869000000    -4.257000000
O    -1.122000000     2.129000000     5.250000000
H    -0.544000000     1.463000000     4.879000000
H    -2.004000000     1.833000000     5.026000000
O    -1.844000000    -4.345000000    -2.138000000
H    -1.313000000    -4.476000000    -2.924000000
H    -1.596000000    -3.476000000    -1.824000000
O    -3.071000000     3.532000000     1.386000000
H    -3.429000000     2.964000000     0.703000000
H    -2.740000000     4.296000000     0.913000000
O    -1.371000000     0.129000000     7.529000000
H    -1.744000000    -0.426000000     6.844000000
H    -0.478000000     0.307000000     7.233000000
O    -3.897000000     1.756000000     3.642000000
H    -3.387000000     2.070000000     2.895000000
H    -4.772000000     2.120000000     3.504000000
O     0.138000000     0.127000000     4.163000000
H     0.646000000     0.043000000     3.356000000
H     0.487000000    -0.554000000     4.737000000
O     3.900000000     1.341000000     0.115000000
H     3.707000000     0.880000000    -0.702000000
H     3.854000000     0.663000000     0.789000000
O    -0.806000000     5.223000000    -5.782000000
H    -1.052000000     4.568000000    -6.435000000
H    -1.578000000     5.784000000    -5.703000000
O     1.027000000     3.668000000     4.415000000
H     0.209000000     3.266000000     4.708000000
H     0.751000000     4.397000000     3.860000000
O     2.429000000     2.714000000    -8.050000000
H     1.993000000     2.617000000    -7.203000000
H     3.258000000     2.248000000    -7.947000000
O     1.334000000     3.156000000    -5.391000000
H     1.183000000     2.872000000    -4.490000000
H     0.597000000     3.734000000    -5.587000000
O     3.493000000     0.720000000     5.462000000
H     2.761000000     0.396000000     4.937000000
H     3.768000000     1.523000000     5.020000000
O     3.308000000     2.304000000     3.122000000
H     3.489000000     2.755000000     2.298000000
H     2.603000000     2.813000000     3.524000000
O     1.645000000     5.583000000     2.701000000
H     2.408000000     6.095000000     2.970000000
H     1.927000000     5.134000000     1.905000000
O     1.727000000    -4.524000000    -4.288000000
H     1.385000000    -4.991000000    -3.526000000
H     1.048000000    -4.622000000    -4.955000000
O     0.629000000     4.956000000    -0.249000000
H     0.669000000     4.626000000    -1.146000000
H    -0.260000000     4.754000000     0.042000000
O     3.490000000     4.196000000    -2.450000000
H     3.543000000     3.287000000    -2.747000000
H     2.603000000     4.471000000    -2.679000000
O    -2.414000000    -0.889000000    -1.939000000
H    -3.208000000    -0.913000000    -1.405000000
H    -1.748000000    -0.514000000    -1.363000000
O    -1.465000000    -4.836000000     2.611000000
H    -2.092000000    -5.444000000     3.003000000
H    -1.075000000    -4.381000000     3.357000000
O     5.116000000     0.939000000    -5.410000000
H     4.361000000     0.635000000    -5.915000000
H     5.869000000     0.756000000    -5.971000000
O     5.251000000    -1.708000000    -2.207000000
H     4.787000000    -2.468000000    -2.556000000
H     4.741000000    -0.956000000    -2.509000000
O     2.572000000    -3.423000000     5.663000000
H     3.391000000    -3.748000000     6.038000000
H     2.192000000    -4.183000000     5.223000000
O    -1.977000000     4.869000000     3.768000000
H    -2.422000000     4.533000000     4.546000000
H    -2.292000000     4.314000000     3.054000000
O     0.605000000    -5.744000000     0.758000000
H    -0.149000000    -5.500000000     1.296000000
H     0.794000000    -6.648000000     1.007000000
O     1.079000000    -6.190000000    -1.863000000
H     0.196000000    -6.534000000    -2.000000000
H     1.117000000    -5.997000000    -0.926000000
O    -2.220000000     1.961000000    -3.217000000
H    -1.497000000     1.435000000    -3.557000000
H    -1.795000000     2.675000000    -2.741000000
O     3.557000000    -0.840000000     1.392000000
H     2.818000000    -0.870000000     1.999000000
H     3.493000000    -1.655000000     0.895000000
O    -1.198000000     7.719000000    -1.410000000
H    -1.827000000     7.837000000    -2.121000000
H    -0.348000000     7.665000000    -1.847000000
O     4.119000000     0.716000000    -2.914000000
H     4.479000000     0.886000000    -3.785000000
H     3.223000000     1.049000000    -2.955000000
O    -3.411000000     4.879000000    -2.818000000
H    -3.201000000     5.107000000    -3.723000000
H    -4.288000000     4.497000000    -2.864000000
O    -4.237000000    -1.041000000     4.481000000
H    -3.823000000    -1.425000000     3.708000000
H    -4.580000000    -0.201000000     4.177000000
O     0.295000000     5.799000000    -3.465000000
H     0.288000000     4.895000000    -3.151000000
H    -0.321000000     5.803000000    -4.198000000
O     3.805000000    -3.896000000    -2.437000000
H     4.094000000    -4.797000000    -2.292000000
H     2.987000000    -3.984000000    -2.928000000
O    -3.647000000    -3.021000000     2.123000000
H    -4.155000000    -3.674000000     2.604000000
H    -2.855000000    -3.486000000     1.852000000
O     6.301000000     2.289000000    -1.186000000
H     5.482000000     2.096000000    -0.730000000
H     6.523000000     3.180000000    -0.914000000
O     3.731000000    -3.224000000     0.392000000
H     4.274000000    -3.285000000    -0.394000000
H     2.850000000    -3.448000000     0.093000000
