158
-3055.57897
C    -0.635000000    -1.359000000    -0.001000000
H    -0.988000000    -2.385000000     0.073000000
C     0.688000000    -1.088000000     0.370000000
H     1.309000000    -1.934000000     0.651000000
C     1.193000000     0.218000000     0.308000000
H     2.233000000     0.331000000     0.769000000
C     0.306000000     1.252000000    -0.014000000
H     0.616000000     2.287000000     0.102000000
C    -0.982000000     0.965000000    -0.511000000
H    -1.617000000     1.810000000    -0.764000000
C    -1.432000000    -0.348000000    -0.514000000
C    -2.901000000    -0.548000000    -0.978000000
O    -3.244000000    -1.722000000    -1.283000000
O    -3.676000000     0.370000000    -0.949000000
O     3.729000000    -2.644000000    -2.845000000
H     4.680000000    -2.545000000    -2.885000000
H     3.398000000    -1.750000000    -2.768000000
O     2.195000000     0.182000000     3.692000000
H     1.596000000    -0.563000000     3.640000000
H     1.724000000     0.898000000     3.265000000
O     4.426000000    -3.332000000     0.183000000
H     4.797000000    -3.073000000    -0.660000000
H     3.681000000    -2.744000000     0.308000000
O    -1.550000000    -3.540000000     2.345000000
H    -2.338000000    -3.773000000     1.855000000
H    -1.848000000    -3.455000000     3.251000000
O     3.808000000     1.321000000    -2.848000000
H     2.912000000     0.985000000    -2.857000000
H     4.081000000     1.251000000    -1.933000000
O    -2.880000000     4.387000000    -0.736000000
H    -3.466000000     4.764000000    -1.392000000
H    -2.023000000     4.370000000    -1.163000000
O    -4.397000000     1.500000000    -3.237000000
H    -5.311000000     1.352000000    -3.480000000
H    -4.337000000     1.192000000    -2.333000000
O    -2.781000000    -4.210000000    -0.576000000
H    -3.691000000    -4.256000000    -0.283000000
H    -2.720000000    -3.375000000    -1.039000000
O     4.737000000     1.385000000     3.289000000
H     4.977000000     2.117000000     3.857000000
H     3.801000000     1.260000000     3.441000000
O     1.189000000     0.088000000    -3.042000000
H     1.253000000    -0.867000000    -3.049000000
H     0.773000000     0.294000000    -2.205000000
O     0.255000000    -6.235000000     2.322000000
H    -0.619000000    -6.262000000     2.713000000
H     0.156000000    -5.673000000     1.553000000
O     6.358000000    -1.294000000    -3.091000000
H     6.531000000    -0.663000000    -2.393000000
H     7.123000000    -1.869000000    -3.089000000
O     1.008000000     5.731000000     0.976000000
H     0.489000000     5.308000000     1.659000000
H     0.472000000     5.653000000     0.186000000
O     1.923000000    -2.636000000     5.459000000
H     1.576000000    -3.481000000     5.744000000
H     1.858000000    -2.077000000     6.234000000
O     7.038000000     1.098000000    -1.516000000
H     6.316000000     1.409000000    -0.970000000
H     7.151000000     1.782000000    -2.176000000
O    -4.645000000    -2.936000000     1.683000000
H    -4.214000000    -2.650000000     2.489000000
H    -4.916000000    -2.124000000     1.256000000
O     0.392000000     1.852000000    -5.036000000
H     0.821000000     1.525000000    -5.827000000
H     0.562000000     1.180000000    -4.376000000
O    -3.343000000    -0.604000000    -4.639000000
H    -3.578000000     0.020000000    -5.326000000
H    -3.529000000    -0.142000000    -3.822000000
O    -5.819000000    -2.117000000    -2.243000000
H    -4.997000000    -1.861000000    -1.824000000
H    -5.582000000    -2.286000000    -3.154000000
O     0.420000000    -2.547000000    -3.352000000
H    -0.537000000    -2.532000000    -3.362000000
H     0.642000000    -3.296000000    -2.798000000
O    -6.982000000     2.042000000     0.458000000
H    -6.215000000     2.428000000     0.881000000
H    -6.941000000     2.359000000    -0.445000000
O     4.379000000    -1.551000000     4.168000000
H     4.368000000    -0.755000000     3.636000000
H     3.505000000    -1.591000000     4.556000000
O    -4.192000000     2.334000000     1.025000000
H    -3.834000000     3.077000000     0.540000000
H    -3.910000000     1.566000000     0.529000000
O     1.513000000     2.914000000     3.075000000
H     1.874000000     3.712000000     3.463000000
H     0.595000000     3.125000000     2.903000000
O     1.338000000    -4.991000000    -2.176000000
H     2.141000000    -5.009000000    -1.656000000
H     0.645000000    -5.217000000    -1.555000000
O    -7.315000000    -3.986000000    -0.278000000
H    -7.070000000    -4.858000000     0.034000000
H    -6.808000000    -3.867000000    -1.080000000
O     4.673000000     1.325000000     0.154000000
H     4.968000000     0.995000000     1.003000000
H     4.101000000     2.061000000     0.369000000
O     2.152000000     3.681000000    -1.865000000
H     2.358000000     2.967000000    -2.468000000
H     2.701000000     3.514000000    -1.099000000
O    -4.791000000    -5.624000000     1.072000000
H    -4.870000000    -4.735000000     1.417000000
H    -4.885000000    -6.188000000     1.839000000
O     3.151000000     3.649000000     0.654000000
H     2.356000000     3.481000000     1.160000000
H     3.410000000     4.536000000     0.902000000
O     7.385000000    -1.559000000    -0.143000000
H     7.406000000    -0.976000000     0.616000000
H     8.065000000    -1.219000000    -0.725000000
O    -0.434000000    -5.460000000    -0.480000000
H    -1.228000000    -4.957000000    -0.659000000
H    -0.740000000    -6.362000000    -0.377000000
O    -2.146000000    -0.618000000     3.372000000
H    -1.519000000    -0.978000000     2.745000000
H    -2.453000000    -1.378000000     3.868000000
O     2.900000000     4.809000000     4.710000000
H     3.604000000     4.189000000     4.900000000
H     3.144000000     5.199000000     3.870000000
O    -5.575000000    -0.608000000     0.767000000
H    -6.306000000     0.010000000     0.773000000
H    -4.945000000    -0.228000000     0.155000000
O     0.603000000    -2.140000000     3.297000000
H     0.087000000    -2.905000000     3.046000000
H     1.054000000    -2.406000000     4.098000000
O     1.938000000     1.122000000     6.293000000
H     1.013000000     1.308000000     6.455000000
H     1.969000000     0.830000000     5.382000000
O    -0.457000000     4.739000000    -2.089000000
H    -0.757000000     4.397000000    -2.931000000
H     0.464000000     4.484000000    -2.041000000
O    -3.181000000    -4.380000000    -5.626000000
H    -3.302000000    -3.860000000    -4.831000000
H    -2.312000000    -4.135000000    -5.943000000
O    -0.939000000     3.892000000     2.807000000
H    -0.939000000     4.693000000     3.333000000
H    -1.451000000     3.268000000     3.321000000
O    -4.674000000     4.365000000    -2.735000000
H    -5.603000000     4.347000000    -2.505000000
H    -4.421000000     3.443000000    -2.780000000
O    -2.022000000     2.885000000    -3.877000000
H    -2.784000000     2.345000000    -3.670000000
H    -1.318000000     2.256000000    -4.034000000
O     6.874000000     3.522000000     2.507000000
H     7.216000000     4.312000000     2.926000000
H     6.027000000     3.788000000     2.150000000
O     7.060000000     0.107000000     1.911000000
H     7.493000000     0.867000000     2.299000000
H     6.184000000     0.108000000     2.296000000
O    -2.321000000    -2.616000000    -3.492000000
H    -2.579000000    -1.944000000    -4.124000000
H    -2.695000000    -2.320000000    -2.662000000
O    -3.540000000     1.788000000     3.674000000
H    -3.167000000     0.913000000     3.782000000
H    -3.608000000     1.904000000     2.726000000
O     3.641000000    -5.816000000    -0.501000000
H     3.576000000    -4.952000000    -0.093000000
H     3.910000000    -6.397000000     0.210000000
O    -8.208000000    -0.882000000    -0.674000000
H    -8.118000000    -0.042000000    -1.125000000
H    -7.380000000    -1.332000000    -0.839000000
