158
-3044.32784
C    -1.227000000    -0.103000000    -0.861000000
H    -2.076000000    -0.280000000    -1.518000000
C    -0.453000000    -1.204000000    -0.478000000
H    -0.663000000    -2.201000000    -0.857000000
C     0.632000000    -0.993000000     0.383000000
H     1.238000000    -1.861000000     0.666000000
C     0.866000000     0.276000000     0.890000000
H     1.689000000     0.437000000     1.581000000
C     0.106000000     1.390000000     0.498000000
H     0.290000000     2.377000000     0.914000000
C    -0.895000000     1.219000000    -0.490000000
C    -1.589000000     2.431000000    -1.027000000
O    -2.553000000     2.321000000    -1.710000000
O    -1.062000000     3.514000000    -0.942000000
O    -7.655000000     3.083000000    -3.303000000
H    -7.754000000     2.461000000    -2.581000000
H    -6.823000000     3.522000000    -3.128000000
O     0.405000000    -4.353000000     5.940000000
H    -0.230000000    -3.662000000     6.126000000
H     0.331000000    -4.498000000     4.996000000
O     4.101000000    -4.422000000     0.760000000
H     4.514000000    -4.309000000    -0.096000000
H     3.333000000    -4.966000000     0.586000000
O    -1.545000000     8.149000000    -1.786000000
H    -1.637000000     8.292000000    -2.728000000
H    -1.974000000     7.308000000    -1.629000000
O    -3.055000000     5.810000000    -1.244000000
H    -3.593000000     5.542000000    -1.989000000
H    -2.464000000     5.072000000    -1.096000000
O    -1.116000000    -5.711000000    -2.072000000
H    -0.957000000    -5.201000000    -1.277000000
H    -0.744000000    -5.179000000    -2.776000000
O    -7.419000000     1.363000000    -1.052000000
H    -7.714000000     0.499000000    -0.765000000
H    -6.544000000     1.456000000    -0.674000000
O     3.340000000     2.959000000     0.912000000
H     2.574000000     3.199000000     0.390000000
H     3.319000000     3.560000000     1.657000000
O     0.811000000     2.304000000    -4.550000000
H     0.560000000     1.381000000    -4.502000000
H     1.727000000     2.318000000    -4.274000000
O    -4.669000000     2.831000000     1.791000000
H    -4.318000000     3.720000000     1.740000000
H    -5.298000000     2.863000000     2.512000000
O     4.902000000    -4.796000000     4.261000000
H     4.983000000    -4.652000000     3.318000000
H     4.761000000    -3.922000000     4.625000000
O    -3.705000000    -5.514000000    -3.011000000
H    -2.968000000    -5.936000000    -2.570000000
H    -4.042000000    -4.889000000    -2.369000000
O    -0.236000000    -7.160000000     0.706000000
H    -0.961000000    -7.754000000     0.514000000
H    -0.577000000    -6.290000000     0.497000000
O     0.526000000    -4.807000000     3.329000000
H     1.038000000    -5.608000000     3.447000000
H     1.088000000    -4.238000000     2.804000000
O    -0.076000000    -4.164000000    -4.085000000
H    -0.732000000    -4.076000000    -4.775000000
H     0.763000000    -4.121000000    -4.544000000
O     1.791000000     4.254000000    -1.594000000
H     0.839000000     4.263000000    -1.495000000
H     2.096000000     4.968000000    -1.033000000
O     5.027000000    -2.388000000     2.297000000
H     4.643000000    -2.961000000     1.633000000
H     4.827000000    -1.503000000     1.992000000
O     3.454000000     2.641000000    -3.078000000
H     2.802000000     3.100000000    -2.548000000
H     3.939000000     2.105000000    -2.450000000
O    -1.896000000    -3.597000000     4.051000000
H    -1.070000000    -3.985000000     3.762000000
H    -2.040000000    -2.867000000     3.449000000
O     1.327000000    -2.044000000     3.676000000
H     1.467000000    -1.105000000     3.798000000
H     0.599000000    -2.256000000     4.260000000
O    -4.654000000     1.026000000    -0.208000000
H    -4.587000000     1.726000000     0.441000000
H    -4.169000000     1.354000000    -0.965000000
O     6.084000000    -4.051000000    -1.090000000
H     6.413000000    -3.291000000    -1.570000000
H     6.509000000    -4.800000000    -1.505000000
O     4.506000000     0.425000000    -1.147000000
H     3.587000000     0.342000000    -0.890000000
H     4.950000000    -0.282000000    -0.679000000
O     3.814000000     1.436000000     4.547000000
H     4.292000000     1.538000000     5.370000000
H     2.901000000     1.321000000     4.812000000
O    -0.284000000     4.967000000     1.057000000
H     0.610000000     4.708000000     1.280000000
H    -0.465000000     4.518000000     0.231000000
O    -2.026000000    -1.589000000     2.049000000
H    -2.146000000    -0.660000000     2.245000000
H    -1.440000000    -1.601000000     1.293000000
O     4.273000000     0.333000000     1.804000000
H     3.894000000     1.168000000     1.529000000
H     4.505000000     0.466000000     2.723000000
O    -2.358000000    -1.458000000    -4.000000000
H    -2.001000000    -1.950000000    -4.740000000
H    -2.899000000    -2.093000000    -3.530000000
O    -4.969000000     7.198000000     0.223000000
H    -4.256000000     6.818000000    -0.290000000
H    -5.677000000     7.325000000    -0.408000000
O     0.484000000    -0.479000000    -3.717000000
H    -0.264000000    -0.863000000    -4.175000000
H     0.246000000    -0.523000000    -2.791000000
O     6.284000000     2.560000000     0.667000000
H     5.331000000     2.651000000     0.658000000
H     6.448000000     1.807000000     1.235000000
O    -4.700000000    -2.524000000    -3.185000000
H    -5.082000000    -3.273000000    -3.643000000
H    -5.343000000    -1.824000000    -3.293000000
O     5.195000000    -1.332000000    -3.155000000
H     5.197000000    -0.701000000    -2.435000000
H     4.696000000    -0.902000000    -3.849000000
O     2.107000000    -5.892000000     0.124000000
H     2.245000000    -6.167000000    -0.783000000
H     1.312000000    -6.352000000     0.395000000
O    -1.264000000     3.213000000     3.691000000
H    -1.206000000     4.048000000     3.227000000
H    -0.426000000     3.134000000     4.148000000
O    -2.443000000     1.066000000     2.632000000
H    -1.773000000     1.669000000     2.953000000
H    -3.012000000     1.608000000     2.085000000
O     1.365000000     0.525000000     5.285000000
H     1.862000000     0.296000000     6.070000000
H     0.469000000     0.652000000     5.597000000
O     2.430000000     6.108000000     0.389000000
H     1.814000000     6.768000000     0.070000000
H     3.159000000     6.615000000     0.748000000
O    -4.015000000    -3.290000000    -0.630000000
H    -4.087000000    -2.722000000    -1.397000000
H    -4.478000000    -2.817000000     0.062000000
O    -3.487000000     1.411000000    -4.317000000
H    -3.111000000     2.131000000    -3.811000000
H    -2.974000000     0.645000000    -4.061000000
O    -1.728000000     6.228000000     2.798000000
H    -1.138000000     5.753000000     2.212000000
H    -1.865000000     7.072000000     2.368000000
O    -0.527000000     4.720000000    -3.827000000
H    -0.625000000     4.597000000    -2.883000000
H     0.004000000     3.976000000    -4.112000000
O    -1.465000000    -4.525000000     0.420000000
H    -2.379000000    -4.344000000     0.202000000
H    -1.191000000    -3.772000000     0.945000000
O     3.470000000    -2.574000000     5.251000000
H     3.128000000    -3.099000000     5.975000000
H     2.701000000    -2.368000000     4.720000000
O    -5.079000000     3.858000000    -2.916000000
H    -4.475000000     3.123000000    -2.815000000
H    -4.858000000     4.235000000    -3.768000000
O    -4.810000000    -1.285000000     1.160000000
H    -4.902000000    -0.371000000     0.889000000
H    -4.224000000    -1.252000000     1.917000000
O    -5.812000000     0.844000000    -5.443000000
H    -5.010000000     1.222000000    -5.081000000
H    -6.036000000     0.136000000    -4.840000000
O     2.791000000     3.961000000     3.306000000
H     3.072000000     3.111000000     3.644000000
H     2.703000000     4.511000000     4.085000000
