158
-3023.58760
C     0.990000000     0.756000000    -0.778000000
H     1.851000000     1.242000000    -1.230000000
C     0.995000000     0.563000000     0.603000000
H     1.853000000     0.971000000     1.131000000
C     0.003000000    -0.133000000     1.226000000
H     0.083000000    -0.484000000     2.250000000
C    -1.131000000    -0.541000000     0.504000000
H    -1.874000000    -1.044000000     1.117000000
C    -1.140000000    -0.388000000    -0.906000000
H    -2.003000000    -0.775000000    -1.442000000
C    -0.054000000     0.179000000    -1.541000000
C    -0.077000000     0.289000000    -3.027000000
O    -0.872000000    -0.224000000    -3.805000000
O     0.830000000     0.880000000    -3.699000000
O    -1.665000000    -5.430000000    -3.975000000
H    -2.439000000    -5.483000000    -3.414000000
H    -1.307000000    -4.559000000    -3.807000000
O    -2.236000000     3.785000000    -3.082000000
H    -2.648000000     4.353000000    -3.732000000
H    -2.968000000     3.422000000    -2.582000000
O    -2.327000000     1.620000000    -4.643000000
H    -2.024000000     2.284000000    -4.024000000
H    -1.879000000     0.819000000    -4.373000000
O     1.792000000    -3.520000000     2.680000000
H     1.299000000    -4.065000000     3.294000000
H     1.345000000    -3.637000000     1.842000000
O     4.713000000    -0.464000000     5.567000000
H     4.167000000    -0.875000000     6.238000000
H     4.185000000    -0.509000000     4.770000000
O     1.988000000    -3.420000000     6.030000000
H     1.260000000    -3.927000000     5.671000000
H     2.752000000    -3.714000000     5.532000000
O     2.885000000    -1.129000000     3.216000000
H     2.488000000    -1.968000000     2.982000000
H     2.170000000    -0.625000000     3.604000000
O     3.152000000    -1.702000000     7.427000000
H     3.514000000    -2.249000000     8.124000000
H     2.623000000    -2.303000000     6.902000000
O    -0.946000000     1.369000000    -7.273000000
H    -1.320000000     0.586000000    -7.678000000
H    -1.520000000     1.550000000    -6.528000000
O     3.533000000    -5.374000000     1.463000000
H     2.675000000    -5.784000000     1.359000000
H     3.347000000    -4.527000000     1.868000000
O    -3.333000000    -0.115000000     6.601000000
H    -3.196000000    -1.058000000     6.512000000
H    -2.896000000     0.263000000     5.838000000
O    -2.194000000    -4.443000000    -0.880000000
H    -2.488000000    -5.339000000    -1.044000000
H    -2.773000000    -3.900000000    -1.415000000
O    -5.238000000     1.444000000     1.303000000
H    -5.810000000     1.874000000     1.939000000
H    -5.811000000     0.834000000     0.839000000
O     5.080000000    -2.826000000     3.654000000
H     4.670000000    -3.630000000     3.972000000
H     4.400000000    -2.158000000     3.745000000
O     1.192000000    -2.985000000    -1.253000000
H     0.892000000    -3.030000000    -0.345000000
H     0.813000000    -2.173000000    -1.590000000
O    -3.460000000     2.457000000    -0.533000000
H    -4.036000000     2.072000000     0.127000000
H    -2.603000000     2.497000000    -0.109000000
O     4.265000000    -0.428000000     0.614000000
H     3.892000000    -0.627000000     1.473000000
H     4.341000000     0.526000000     0.601000000
O    -4.960000000     1.157000000    -5.797000000
H    -5.683000000     1.623000000    -5.377000000
H    -4.177000000     1.639000000    -5.529000000
O    -1.013000000     2.679000000     0.502000000
H    -0.495000000     1.900000000     0.299000000
H    -0.398000000     3.407000000     0.410000000
O     2.668000000    -0.914000000    -4.206000000
H     3.267000000    -0.830000000    -3.464000000
H     1.935000000    -0.337000000    -3.987000000
O    -4.329000000     0.511000000    -2.147000000
H    -3.856000000     1.186000000    -1.659000000
H    -5.115000000     0.954000000    -2.467000000
O    -2.219000000     0.104000000     4.033000000
H    -2.498000000     0.826000000     3.470000000
H    -2.777000000    -0.630000000     3.776000000
O    -2.511000000     2.614000000     5.984000000
H    -3.315000000     2.890000000     6.424000000
H    -2.796000000     2.349000000     5.110000000
O     0.590000000     3.812000000    -4.080000000
H    -0.356000000     3.791000000    -3.936000000
H     0.855000000     2.892000000    -4.069000000
O     2.227000000     2.721000000     3.229000000
H     1.948000000     1.819000000     3.071000000
H     3.183000000     2.679000000     3.226000000
O     1.922000000     1.244000000    -6.997000000
H     1.874000000     2.162000000    -7.266000000
H     1.084000000     1.076000000    -6.567000000
O    -3.363000000    -2.118000000    -3.841000000
H    -2.594000000    -2.185000000    -4.406000000
H    -3.215000000    -1.324000000    -3.327000000
O    -0.292000000     1.413000000     7.086000000
H    -1.011000000     1.893000000     6.674000000
H    -0.464000000     1.483000000     8.025000000
O    -1.951000000    -3.325000000     3.232000000
H    -1.286000000    -2.963000000     3.818000000
H    -2.719000000    -2.770000000     3.371000000
O    -0.355000000     4.139000000     4.978000000
H    -0.299000000     3.469000000     4.297000000
H    -1.145000000     3.915000000     5.470000000
O     5.926000000     2.218000000    -4.557000000
H     6.205000000     1.371000000    -4.207000000
H     4.970000000     2.184000000    -4.531000000
O     6.307000000    -1.940000000    -0.072000000
H     5.888000000    -2.770000000    -0.299000000
H     5.590000000    -1.386000000     0.238000000
O     3.166000000     2.152000000    -4.474000000
H     3.102000000     1.965000000    -5.410000000
H     2.309000000     1.910000000    -4.122000000
O    -0.179000000    -1.944000000     5.009000000
H    -0.435000000    -1.025000000     5.085000000
H     0.722000000    -1.969000000     5.332000000
O     4.621000000     2.188000000     0.777000000
H     5.425000000     2.702000000     0.855000000
H     4.237000000     2.469000000    -0.054000000
O    -1.197000000    -2.342000000    -5.546000000
H    -1.762000000    -1.968000000    -6.222000000
H    -0.958000000    -1.596000000    -4.995000000
O    -5.464000000    -3.827000000     1.391000000
H    -4.691000000    -3.447000000     0.973000000
H    -5.997000000    -4.146000000     0.662000000
O     4.112000000    -0.809000000    -2.052000000
H     4.082000000    -0.689000000    -1.103000000
H     5.010000000    -1.092000000    -2.229000000
O     4.136000000     2.570000000    -1.768000000
H     3.868000000     3.402000000    -2.159000000
H     3.706000000     1.904000000    -2.305000000
O    -4.215000000    -1.537000000     3.065000000
H    -4.746000000    -1.099000000     2.400000000
H    -4.750000000    -2.276000000     3.351000000
O     1.284000000     4.099000000    -1.204000000
H     1.847000000     4.870000000    -1.281000000
H     0.764000000     4.101000000    -2.007000000
O     1.481000000     0.256000000     5.332000000
H     2.073000000     0.270000000     6.084000000
H     0.702000000     0.724000000     5.632000000
O     1.198000000    -3.512000000    -4.958000000
H     1.750000000    -2.730000000    -4.949000000
H     0.356000000    -3.206000000    -5.295000000
O    -0.205000000    -4.181000000     1.087000000
H    -0.934000000    -3.927000000     1.652000000
H    -0.619000000    -4.435000000     0.262000000
O     0.772000000     4.767000000     1.515000000
H     1.383000000     4.333000000     2.111000000
H     1.101000000     4.559000000     0.641000000
O    -3.258000000     2.410000000     3.002000000
H    -3.152000000     3.233000000     2.526000000
H    -3.852000000     1.893000000     2.457000000
O     5.104000000    -0.857000000    -5.935000000
H     4.321000000    -0.915000000    -5.386000000
H     5.227000000    -1.745000000    -6.271000000
O    -4.608000000    -3.654000000    -2.148000000
H    -5.486000000    -3.441000000    -1.829000000
H    -4.372000000    -2.915000000    -2.710000000
