158
-3044.11715
C    -1.320000000     0.565000000    -0.406000000
H    -2.295000000     1.032000000    -0.524000000
C    -1.159000000    -0.645000000     0.259000000
H    -2.035000000    -1.183000000     0.612000000
C     0.172000000    -1.084000000     0.464000000
H     0.235000000    -2.013000000     1.019000000
C     1.276000000    -0.319000000     0.182000000
H     2.289000000    -0.679000000     0.336000000
C     1.102000000     0.913000000    -0.419000000
H     1.982000000     1.435000000    -0.786000000
C    -0.218000000     1.353000000    -0.800000000
C    -0.372000000     2.728000000    -1.441000000
O    -1.455000000     3.144000000    -1.744000000
O     0.662000000     3.313000000    -1.772000000
O    -5.750000000     5.082000000    -3.414000000
H    -4.905000000     5.277000000    -3.007000000
H    -6.075000000     4.319000000    -2.936000000
O     5.257000000    -4.478000000     3.415000000
H     4.348000000    -4.392000000     3.126000000
H     5.426000000    -5.420000000     3.396000000
O     6.895000000     0.614000000    -0.789000000
H     6.205000000     0.645000000    -0.126000000
H     6.437000000     0.394000000    -1.600000000
O     0.062000000    -5.711000000    -0.506000000
H    -0.858000000    -5.702000000    -0.242000000
H     0.543000000    -5.865000000     0.307000000
O     2.071000000     6.989000000     1.988000000
H     1.877000000     6.575000000     2.829000000
H     1.792000000     6.346000000     1.335000000
O     4.026000000     3.969000000    -1.724000000
H     3.136000000     4.013000000    -1.375000000
H     4.560000000     3.682000000    -0.983000000
O     3.371000000     7.505000000    -3.200000000
H     3.529000000     8.031000000    -3.984000000
H     3.037000000     6.672000000    -3.533000000
O     2.748000000     1.785000000     4.027000000
H     2.322000000     1.886000000     4.879000000
H     2.081000000     2.050000000     3.393000000
O     1.312000000     5.374000000    -3.315000000
H     0.592000000     5.064000000    -3.863000000
H     1.279000000     4.816000000    -2.537000000
O    -1.947000000     5.985000000    -1.869000000
H    -1.982000000     6.055000000    -2.823000000
H    -1.533000000     5.138000000    -1.706000000
O    -0.236000000     8.248000000    -1.225000000
H     0.672000000     7.949000000    -1.272000000
H    -0.753000000     7.443000000    -1.205000000
O    -4.686000000     0.418000000    -0.033000000
H    -4.377000000    -0.004000000    -0.835000000
H    -4.873000000     1.320000000    -0.293000000
O     0.895000000    -2.134000000     5.036000000
H     0.285000000    -2.687000000     4.547000000
H     1.499000000    -2.751000000     5.449000000
O    -1.126000000     0.720000000    -5.554000000
H    -0.796000000     0.417000000    -6.400000000
H    -2.021000000     1.007000000    -5.735000000
O     5.777000000    -2.231000000     1.537000000
H     5.207000000    -2.465000000     0.804000000
H     5.700000000    -2.967000000     2.145000000
O    -2.994000000     3.214000000    -5.672000000
H    -3.189000000     2.921000000    -4.782000000
H    -3.773000000     2.979000000    -6.177000000
O     0.102000000     3.172000000    -4.592000000
H    -0.606000000     2.616000000    -4.917000000
H     0.113000000     3.019000000    -3.647000000
O     0.700000000    -1.563000000    -2.715000000
H     1.624000000    -1.313000000    -2.695000000
H     0.371000000    -1.336000000    -1.845000000
O     3.619000000    -1.222000000    -2.351000000
H     3.826000000    -0.294000000    -2.245000000
H     4.082000000    -1.482000000    -3.147000000
O    -2.114000000    -4.784000000     0.636000000
H    -2.469000000    -4.804000000    -0.253000000
H    -2.855000000    -4.526000000     1.185000000
O     1.046000000    -8.052000000     2.329000000
H     1.536000000    -8.673000000     1.789000000
H     1.288000000    -7.192000000     1.985000000
O     2.110000000    -5.565000000     1.623000000
H     2.944000000    -6.033000000     1.580000000
H     2.337000000    -4.703000000     1.973000000
O     5.516000000     0.869000000     2.380000000
H     6.219000000     0.314000000     2.716000000
H     4.755000000     0.641000000     2.915000000
O    -3.849000000    -4.154000000     2.668000000
H    -3.868000000    -4.892000000     3.278000000
H    -4.488000000    -3.535000000     3.021000000
O    -1.646000000    -1.406000000    -3.774000000
H    -0.797000000    -1.664000000    -3.416000000
H    -1.444000000    -0.696000000    -4.383000000
O     1.644000000    -4.604000000    -3.692000000
H     1.937000000    -3.968000000    -4.345000000
H     1.056000000    -4.109000000    -3.122000000
O    -3.920000000    -0.480000000    -2.553000000
H    -3.140000000    -0.864000000    -2.954000000
H    -4.022000000     0.366000000    -2.989000000
O    -0.269000000    -3.932000000     3.164000000
H     0.423000000    -3.418000000     2.748000000
H    -0.863000000    -4.158000000     2.448000000
O     3.707000000    -3.213000000    -0.426000000
H     3.735000000    -4.027000000    -0.928000000
H     3.528000000    -2.535000000    -1.078000000
O    -3.985000000     0.856000000     2.826000000
H    -3.610000000     1.734000000     2.901000000
H    -4.257000000     0.789000000     1.911000000
O     4.205000000     4.796000000    -4.305000000
H     4.219000000     4.303000000    -3.484000000
H     3.290000000     4.771000000    -4.584000000
O     4.460000000     1.392000000    -2.422000000
H     5.337000000     1.418000000    -2.804000000
H     4.335000000     2.265000000    -2.050000000
O     2.876000000    -3.183000000     2.044000000
H     2.919000000    -2.266000000     2.317000000
H     3.044000000    -3.160000000     1.102000000
O    -0.132000000     1.394000000     2.524000000
H    -1.089000000     1.358000000     2.525000000
H     0.136000000     0.638000000     2.002000000
O    -5.971000000    -2.014000000    -1.606000000
H    -5.256000000    -1.477000000    -1.950000000
H    -6.737000000    -1.746000000    -2.114000000
O     2.116000000     6.868000000    -0.934000000
H     2.751000000     6.404000000    -0.388000000
H     2.503000000     6.861000000    -1.810000000
O    -0.280000000    -4.883000000     5.660000000
H    -0.250000000    -4.450000000     4.807000000
H     0.317000000    -5.627000000     5.572000000
O    -6.840000000    -1.251000000     1.175000000
H    -6.606000000    -1.820000000     0.442000000
H    -6.036000000    -0.769000000     1.371000000
O    -0.043000000    -0.340000000     6.774000000
H     0.470000000    -0.711000000     6.056000000
H    -0.480000000     0.419000000     6.389000000
O    -3.634000000     2.325000000    -2.971000000
H    -4.329000000     2.452000000    -2.326000000
H    -2.848000000     2.672000000    -2.548000000
O     1.859000000     3.857000000     0.600000000
H     1.366000000     3.603000000    -0.180000000
H     1.196000000     3.946000000     1.284000000
O     1.956000000     0.893000000    -4.258000000
H     1.330000000     1.612000000    -4.342000000
H     2.662000000     1.252000000    -3.720000000
O    -2.114000000     6.128000000    -4.397000000
H    -1.488000000     6.365000000    -5.082000000
H    -2.814000000     5.669000000    -4.861000000
O    -5.600000000     3.086000000    -1.024000000
H    -5.759000000     3.637000000    -0.257000000
H    -6.471000000     2.803000000    -1.301000000
O     5.346000000     3.259000000     0.504000000
H     5.463000000     2.451000000     1.006000000
H     6.069000000     3.821000000     0.783000000
O     2.894000000    -0.763000000     3.325000000
H     2.139000000    -1.046000000     3.840000000
H     3.008000000     0.159000000     3.554000000
O    -3.042000000     4.014000000     0.840000000
H    -2.473000000     4.673000000     1.237000000
H    -2.637000000     3.828000000    -0.007000000
O    -0.079000000     4.093000000     2.490000000
H    -0.229000000     3.157000000     2.622000000
H    -0.847000000     4.516000000     2.875000000
