158
-3058.08470
C    -1.469000000     0.258000000    -0.353000000
H    -2.533000000     0.226000000    -0.575000000
C    -0.932000000    -0.902000000     0.180000000
H    -1.562000000    -1.691000000     0.585000000
C     0.435000000    -1.002000000     0.432000000
H     0.822000000    -1.898000000     0.801000000
C     1.344000000     0.021000000     0.169000000
H     2.377000000    -0.028000000     0.506000000
C     0.817000000     1.124000000    -0.499000000
H     1.475000000     1.906000000    -0.869000000
C    -0.590000000     1.277000000    -0.666000000
C    -1.170000000     2.573000000    -1.123000000
O    -2.363000000     2.744000000    -1.319000000
O    -0.387000000     3.527000000    -1.103000000
O    -3.929000000     5.915000000    -2.837000000
H    -4.713000000     5.835000000    -3.381000000
H    -4.136000000     5.418000000    -2.045000000
O     3.264000000    -4.749000000     2.207000000
H     3.679000000    -4.074000000     1.670000000
H     3.992000000    -5.180000000     2.655000000
O     4.860000000     0.464000000    -1.531000000
H     5.179000000     1.117000000    -2.153000000
H     4.543000000     0.976000000    -0.787000000
O     5.329000000    -3.495000000     0.436000000
H     6.022000000    -3.910000000    -0.078000000
H     4.741000000    -3.116000000    -0.218000000
O     4.083000000     2.276000000     0.128000000
H     3.312000000     2.283000000     0.695000000
H     4.792000000     2.602000000     0.684000000
O     0.443000000    -5.651000000     0.100000000
H     0.038000000    -5.505000000    -0.755000000
H    -0.194000000    -5.308000000     0.728000000
O     1.527000000     4.778000000    -3.006000000
H     2.347000000     4.328000000    -2.802000000
H     0.896000000     4.419000000    -2.383000000
O    -1.167000000     5.781000000    -2.616000000
H    -2.120000000     5.827000000    -2.531000000
H    -0.948000000     4.882000000    -2.373000000
O     0.282000000     8.062000000    -3.198000000
H     0.652000000     8.168000000    -2.321000000
H     0.144000000     7.119000000    -3.287000000
O    -5.403000000    -1.068000000    -2.452000000
H    -4.554000000    -0.644000000    -2.325000000
H    -5.668000000    -0.814000000    -3.336000000
O     0.902000000    -0.345000000     5.292000000
H     0.442000000     0.088000000     4.572000000
H     0.387000000    -1.133000000     5.464000000
O    -5.464000000     0.983000000     0.277000000
H    -5.627000000     0.190000000     0.787000000
H    -4.915000000     1.524000000     0.844000000
O    -1.486000000    -5.033000000    -1.773000000
H    -1.023000000    -4.401000000    -2.322000000
H    -1.977000000    -4.497000000    -1.151000000
O     3.452000000    -3.164000000     6.433000000
H     2.605000000    -3.404000000     6.808000000
H     3.428000000    -3.515000000     5.543000000
O    -0.856000000     1.026000000    -4.004000000
H    -0.253000000     1.059000000    -4.746000000
H    -1.355000000     1.841000000    -4.065000000
O    -0.781000000    -2.799000000    -3.327000000
H    -0.431000000    -3.142000000    -4.149000000
H    -0.343000000    -1.955000000    -3.214000000
O     4.193000000    -2.156000000    -1.782000000
H     4.404000000    -1.240000000    -1.963000000
H     4.163000000    -2.570000000    -2.645000000
O     2.093000000    -4.813000000     4.745000000
H     2.601000000    -5.610000000     4.891000000
H     2.256000000    -4.588000000     3.829000000
O     3.211000000    -6.268000000    -0.571000000
H     3.911000000    -6.181000000     0.077000000
H     2.403000000    -6.178000000    -0.064000000
O    -6.219000000    -1.192000000     1.978000000
H    -7.140000000    -1.106000000     2.223000000
H    -6.237000000    -1.603000000     1.114000000
O    -4.386000000     4.300000000    -0.691000000
H    -3.845000000     3.566000000    -0.982000000
H    -5.285000000     4.014000000    -0.853000000
O     4.362000000     0.145000000     4.175000000
H     4.178000000    -0.088000000     5.085000000
H     4.856000000    -0.600000000     3.832000000
O    -3.717000000     5.851000000     1.450000000
H    -4.157000000     5.500000000     0.675000000
H    -2.794000000     5.631000000     1.321000000
O     0.258000000     4.828000000    -5.488000000
H     0.539000000     4.709000000    -4.580000000
H     0.830000000     5.516000000    -5.827000000
O     1.726000000    -4.404000000    -2.215000000
H     1.633000000    -4.434000000    -1.262000000
H     1.991000000    -3.504000000    -2.402000000
O    -3.929000000    -3.611000000    -1.120000000
H    -3.919000000    -3.097000000    -0.312000000
H    -3.936000000    -2.958000000    -1.819000000
O    -3.543000000    -2.649000000     2.225000000
H    -3.175000000    -1.815000000     2.516000000
H    -4.369000000    -2.725000000     2.703000000
O     5.720000000    -2.328000000     2.930000000
H     5.805000000    -3.226000000     3.253000000
H     5.483000000    -2.427000000     2.008000000
O    -3.179000000     0.094000000     3.522000000
H    -3.349000000     0.921000000     3.071000000
H    -3.866000000     0.038000000     4.187000000
O    -5.017000000     1.049000000    -4.352000000
H    -4.170000000     0.926000000    -3.924000000
H    -5.307000000     1.915000000    -4.065000000
O     3.976000000     3.567000000    -2.403000000
H     4.001000000     3.285000000    -1.489000000
H     4.804000000     3.258000000    -2.771000000
O    -1.718000000    -4.852000000     1.798000000
H    -2.443000000    -4.228000000     1.844000000
H    -1.516000000    -5.052000000     2.712000000
O    -0.281000000     0.672000000     3.210000000
H    -0.035000000     0.139000000     2.454000000
H    -1.214000000     0.847000000     3.086000000
O     4.015000000     6.686000000    -1.151000000
H     3.360000000     6.052000000    -0.861000000
H     3.886000000     6.747000000    -2.098000000
O    -0.732000000    -5.401000000     4.204000000
H    -1.329000000    -5.703000000     4.888000000
H     0.141000000    -5.582000000     4.551000000
O    -6.515000000    -2.452000000    -0.346000000
H    -6.901000000    -3.327000000    -0.395000000
H    -6.122000000    -2.316000000    -1.208000000
O    -1.062000000     5.006000000     0.986000000
H    -0.618000000     5.764000000     0.605000000
H    -0.971000000     4.319000000     0.326000000
O    -2.557000000     3.357000000    -3.999000000
H    -2.865000000     4.241000000    -4.196000000
H    -2.840000000     3.199000000    -3.099000000
O     1.989000000     4.635000000     0.008000000
H     1.207000000     4.228000000    -0.365000000
H     2.083000000     4.230000000     0.870000000
O    -0.337000000    -8.329000000     1.674000000
H    -1.237000000    -8.574000000     1.458000000
H    -0.204000000    -7.491000000     1.231000000
O     1.410000000    -0.879000000    -3.538000000
H     1.374000000    -0.335000000    -4.325000000
H     1.156000000    -0.291000000    -2.827000000
O     0.061000000     6.961000000    -0.274000000
H     0.625000000     6.313000000    -0.698000000
H    -0.527000000     7.258000000    -0.968000000
O    -2.645000000    -0.753000000    -3.269000000
H    -2.041000000    -0.087000000    -3.594000000
H    -2.102000000    -1.532000000    -3.147000000
O    -7.036000000     3.079000000    -0.801000000
H    -6.468000000     2.454000000    -0.350000000
H    -7.608000000     2.535000000    -1.342000000
O     0.048000000    -2.923000000     5.906000000
H     0.421000000    -3.240000000     6.728000000
H     0.590000000    -3.323000000     5.227000000
O    -3.598000000     2.434000000     1.830000000
H    -3.046000000     2.446000000     2.613000000
H    -3.369000000     3.238000000     1.364000000
O     7.098000000    -0.709000000    -0.297000000
H     6.433000000    -0.116000000    -0.646000000
H     7.092000000    -1.455000000    -0.897000000
O     2.788000000     2.585000000     2.895000000
H     3.038000000     1.708000000     3.187000000
H     1.913000000     2.717000000     3.259000000
