158
-3028.19899
C    -1.464000000     0.319000000    -0.008000000
H    -2.546000000     0.408000000     0.053000000
C    -0.889000000    -0.892000000     0.507000000
H    -1.509000000    -1.717000000     0.846000000
C     0.467000000    -1.054000000     0.403000000
H     0.834000000    -2.017000000     0.693000000
C     1.283000000    -0.069000000    -0.133000000
H     2.355000000    -0.248000000    -0.102000000
C     0.749000000     1.182000000    -0.413000000
H     1.487000000     1.952000000    -0.624000000
C    -0.679000000     1.341000000    -0.558000000
C    -1.239000000     2.668000000    -0.984000000
O    -2.437000000     2.823000000    -1.049000000
O    -0.561000000     3.685000000    -1.144000000
O    -4.424000000     5.143000000    -3.488000000
H    -3.882000000     5.625000000    -4.113000000
H    -5.057000000     5.789000000    -3.173000000
O     2.978000000    -5.404000000     5.144000000
H     2.853000000    -4.508000000     5.458000000
H     2.491000000    -5.946000000     5.765000000
O     4.027000000     3.685000000    -0.708000000
H     4.904000000     4.023000000    -0.523000000
H     3.638000000     3.542000000     0.154000000
O     3.816000000     2.045000000     1.710000000
H     3.792000000     1.207000000     2.172000000
H     3.236000000     2.614000000     2.216000000
O     1.034000000    -5.788000000     0.409000000
H     1.405000000    -5.381000000     1.192000000
H     0.297000000    -6.305000000     0.734000000
O     1.334000000     0.311000000     2.967000000
H     1.668000000     1.202000000     2.861000000
H     1.031000000     0.064000000     2.093000000
O     1.204000000     5.343000000    -2.260000000
H     1.528000000     4.784000000    -2.967000000
H     0.773000000     4.738000000    -1.656000000
O    -2.394000000     5.859000000    -0.997000000
H    -3.246000000     5.518000000    -0.724000000
H    -1.872000000     5.079000000    -1.184000000
O    -0.061000000     2.854000000    -5.987000000
H    -0.825000000     2.712000000    -6.547000000
H    -0.422000000     3.206000000    -5.174000000
O    -4.220000000    -1.845000000    -1.995000000
H    -3.281000000    -1.822000000    -2.182000000
H    -4.367000000    -1.098000000    -1.416000000
O     2.663000000    -2.021000000     3.691000000
H     2.221000000    -1.174000000     3.753000000
H     2.708000000    -2.334000000     4.594000000
O    -3.852000000     0.548000000    -5.322000000
H    -4.260000000     1.412000000    -5.260000000
H    -3.036000000     0.632000000    -4.829000000
O    -2.248000000    -5.602000000    -2.255000000
H    -3.171000000    -5.760000000    -2.450000000
H    -2.250000000    -4.826000000    -1.695000000
O    -0.515000000    -3.471000000     6.057000000
H    -1.037000000    -3.034000000     5.384000000
H    -1.044000000    -4.224000000     6.319000000
O     1.896000000     3.793000000    -4.753000000
H     1.893000000     4.677000000    -5.120000000
H     1.314000000     3.293000000    -5.326000000
O    -1.293000000    -2.265000000    -2.238000000
H    -0.649000000    -2.625000000    -2.847000000
H    -0.770000000    -1.894000000    -1.527000000
O     5.275000000    -4.731000000     1.867000000
H     4.585000000    -4.250000000     1.409000000
H     5.053000000    -5.653000000     1.735000000
O    -0.034000000    -0.231000000     5.596000000
H    -0.324000000    -1.047000000     5.188000000
H    -0.844000000     0.228000000     5.816000000
O     5.887000000    -1.313000000     1.327000000
H     6.366000000    -1.462000000     0.512000000
H     5.125000000    -1.889000000     1.266000000
O     2.977000000     1.977000000    -2.960000000
H     3.214000000     2.487000000    -2.185000000
H     2.652000000     2.627000000    -3.583000000
O     2.045000000    -4.697000000     2.618000000
H     2.567000000    -5.114000000     3.304000000
H     2.052000000    -3.767000000     2.843000000
O     4.889000000     0.129000000    -3.323000000
H     5.518000000     0.820000000    -3.530000000
H     4.036000000     0.561000000    -3.367000000
O    -3.596000000    -5.735000000     1.548000000
H    -3.689000000    -4.899000000     1.091000000
H    -4.350000000    -6.250000000     1.260000000
O    -2.683000000     2.806000000     1.944000000
H    -2.694000000     2.494000000     1.040000000
H    -1.814000000     3.193000000     2.053000000
O     4.425000000     0.159000000     3.673000000
H     4.092000000    -0.715000000     3.470000000
H     5.318000000     0.009000000     3.983000000
O     0.091000000     7.072000000    -4.011000000
H     0.498000000     6.396000000    -3.469000000
H    -0.761000000     6.707000000    -4.249000000
O    -1.282000000     3.898000000    -3.709000000
H    -0.984000000     4.089000000    -2.819000000
H    -1.787000000     4.670000000    -3.963000000
O     2.469000000    -2.779000000    -1.910000000
H     2.370000000    -1.957000000    -2.391000000
H     1.855000000    -3.379000000    -2.332000000
O    -5.419000000     6.409000000     0.405000000
H    -4.954000000     6.418000000     1.242000000
H    -5.307000000     5.515000000     0.080000000
O     4.493000000    -3.859000000    -3.141000000
H     4.114000000    -4.738000000    -3.184000000
H     3.904000000    -3.373000000    -2.563000000
O     3.718000000    -3.118000000     0.557000000
H     3.017000000    -2.932000000     1.182000000
H     3.287000000    -3.098000000    -0.298000000
O    -6.092000000    -1.356000000     1.529000000
H    -6.757000000    -0.694000000     1.337000000
H    -6.118000000    -1.452000000     2.481000000
O    -3.109000000    -4.506000000     4.040000000
H    -3.008000000    -4.971000000     3.209000000
H    -2.906000000    -5.161000000     4.707000000
O     1.956000000    -5.361000000    -2.514000000
H     1.652000000    -5.581000000    -1.634000000
H     1.348000000    -5.815000000    -3.098000000
O    -2.973000000     0.251000000     3.191000000
H    -2.796000000     1.153000000     3.457000000
H    -3.358000000     0.330000000     2.318000000
O    -4.455000000    -3.592000000     0.242000000
H    -4.898000000    -2.918000000     0.756000000
H    -4.479000000    -3.264000000    -0.656000000
O    -0.816000000     5.204000000     1.526000000
H    -0.650000000     5.129000000     0.586000000
H    -0.145000000     5.810000000     1.840000000
O    -4.870000000     4.010000000    -0.493000000
H    -5.478000000     3.940000000    -1.229000000
H    -4.175000000     3.384000000    -0.697000000
O     1.757000000     3.155000000     3.035000000
H     0.996000000     2.992000000     3.593000000
H     1.819000000     4.109000000     2.987000000
O    -0.857000000    -7.001000000     1.752000000
H    -0.826000000    -7.200000000     2.687000000
H    -1.768000000    -6.758000000     1.588000000
O     1.281000000    -0.009000000    -3.003000000
H     2.070000000     0.533000000    -3.010000000
H     1.025000000    -0.047000000    -2.082000000
O    -1.386000000     8.138000000    -1.523000000
H    -0.543000000     7.846000000    -1.869000000
H    -1.844000000     7.328000000    -1.294000000
O    -4.707000000     2.354000000    -3.349000000
H    -5.069000000     3.226000000    -3.191000000
H    -3.818000000     2.397000000    -2.995000000
O    -1.181000000     1.082000000    -4.054000000
H    -0.515000000     0.629000000    -3.538000000
H    -0.990000000     2.012000000    -3.929000000
O    -5.209000000     2.899000000     2.960000000
H    -4.359000000     2.912000000     2.520000000
H    -5.834000000     3.154000000     2.281000000
O    -1.963000000    -1.962000000     4.468000000
H    -2.306000000    -2.826000000     4.238000000
H    -2.536000000    -1.348000000     4.009000000
O     6.376000000     1.558000000     0.453000000
H     5.592000000     2.085000000     0.606000000
H     6.152000000     0.691000000     0.792000000
O    -4.859000000     0.269000000    -0.382000000
H    -5.482000000     0.688000000    -0.975000000
H    -5.401000000    -0.274000000     0.191000000
