158
-3036.34366
C    -0.898000000    -1.182000000     0.011000000
H    -1.426000000    -2.130000000     0.067000000
C     0.403000000    -1.206000000     0.484000000
H     0.948000000    -2.042000000     0.916000000
C     1.163000000    -0.035000000     0.315000000
H     2.194000000     0.057000000     0.595000000
C     0.561000000     1.130000000    -0.152000000
H     1.226000000     1.985000000    -0.239000000
C    -0.755000000     1.194000000    -0.423000000
H    -1.229000000     2.117000000    -0.748000000
C    -1.535000000    -0.003000000    -0.352000000
C    -3.024000000    -0.006000000    -0.701000000
O    -3.709000000    -1.029000000    -0.674000000
O    -3.572000000     1.039000000    -0.929000000
O    -0.276000000     4.598000000     0.622000000
H     0.609000000     4.683000000     0.978000000
H    -0.343000000     5.300000000    -0.025000000
O     4.153000000    -0.302000000    -1.688000000
H     4.635000000    -0.927000000    -1.146000000
H     3.978000000     0.436000000    -1.104000000
O     1.865000000     1.838000000     3.960000000
H     2.468000000     1.108000000     4.102000000
H     1.136000000     1.454000000     3.471000000
O     4.257000000    -1.851000000     2.006000000
H     4.858000000    -2.331000000     2.577000000
H     3.438000000    -1.812000000     2.500000000
O    -2.177000000    -1.593000000     3.178000000
H    -3.070000000    -1.347000000     3.422000000
H    -2.287000000    -2.198000000     2.445000000
O     0.242000000     2.448000000    -3.888000000
H     0.448000000     2.283000000    -4.808000000
H    -0.363000000     1.746000000    -3.648000000
O    -2.914000000     3.862000000    -2.274000000
H    -2.522000000     3.813000000    -3.146000000
H    -3.013000000     2.949000000    -2.004000000
O     7.581000000    -1.732000000    -1.253000000
H     8.028000000    -2.444000000    -1.712000000
H     6.721000000    -2.091000000    -1.035000000
O     7.233000000    -0.651000000     4.041000000
H     7.382000000    -1.168000000     3.249000000
H     6.376000000    -0.248000000     3.906000000
O    -5.847000000    -3.218000000    -1.361000000
H    -4.984000000    -3.634000000    -1.355000000
H    -5.802000000    -2.564000000    -0.663000000
O     2.144000000    -2.078000000     3.591000000
H     1.874000000    -2.906000000     3.194000000
H     1.323000000    -1.652000000     3.837000000
O    -3.277000000    -3.711000000    -0.928000000
H    -3.254000000    -3.799000000     0.024000000
H    -3.242000000    -2.767000000    -1.083000000
O    -3.787000000     1.371000000    -4.855000000
H    -3.451000000     0.500000000    -5.064000000
H    -3.676000000     1.871000000    -5.664000000
O    -1.639000000    -5.441000000    -2.334000000
H    -0.688000000    -5.538000000    -2.288000000
H    -1.846000000    -4.788000000    -1.664000000
O    -0.300000000    -1.232000000     5.048000000
H    -1.081000000    -1.266000000     4.495000000
H    -0.396000000    -0.422000000     5.549000000
O     4.374000000    -5.156000000    -0.070000000
H     4.711000000    -5.678000000     0.658000000
H     3.422000000    -5.189000000     0.033000000
O    -2.454000000     2.807000000     3.764000000
H    -1.733000000     2.192000000     3.628000000
H    -2.620000000     3.177000000     2.897000000
O     4.149000000     2.087000000    -4.275000000
H     4.490000000     1.440000000    -3.658000000
H     4.438000000     2.929000000    -3.923000000
O     3.460000000    -1.340000000    -4.772000000
H     4.345000000    -0.981000000    -4.713000000
H     3.113000000    -1.270000000    -3.883000000
O    -7.954000000    -2.894000000    -3.315000000
H    -7.644000000    -2.899000000    -2.409000000
H    -8.059000000    -1.967000000    -3.527000000
O     5.260000000     4.900000000    -1.193000000
H     4.922000000     5.341000000    -0.413000000
H     5.741000000     4.146000000    -0.852000000
O     3.091000000    -5.166000000     3.537000000
H     3.060000000    -5.677000000     2.728000000
H     2.178000000    -5.112000000     3.821000000
O    -1.653000000     4.421000000    -4.628000000
H    -0.942000000     3.816000000    -4.420000000
H    -1.441000000     4.747000000    -5.503000000
O    -5.544000000     0.819000000    -2.865000000
H    -4.937000000     0.659000000    -2.142000000
H    -4.997000000     1.183000000    -3.561000000
O     2.433000000    -2.512000000    -1.907000000
H     3.324000000    -2.301000000    -1.628000000
H     1.875000000    -1.933000000    -1.387000000
O     7.010000000     0.680000000    -2.248000000
H     6.301000000     0.764000000    -1.611000000
H     7.575000000    -0.004000000    -1.890000000
O     1.086000000    -5.209000000    -2.146000000
H     1.483000000    -4.341000000    -2.221000000
H     1.670000000    -5.783000000    -2.641000000
O     5.415000000     2.157000000     2.962000000
H     5.068000000     3.041000000     3.082000000
H     5.128000000     1.679000000     3.740000000
O    -4.918000000     5.066000000    -0.543000000
H    -4.253000000     4.647000000    -1.090000000
H    -4.973000000     4.510000000     0.234000000
O     1.596000000    -6.127000000     0.330000000
H     0.861000000    -6.464000000     0.842000000
H     1.217000000    -5.910000000    -0.521000000
O     1.577000000     5.519000000    -3.899000000
H     0.940000000     5.033000000    -3.376000000
H     2.344000000     4.947000000    -3.935000000
O    -5.300000000    -4.695000000     1.665000000
H    -5.739000000    -3.949000000     1.258000000
H    -5.137000000    -4.415000000     2.566000000
O     1.943000000     4.217000000     2.440000000
H     2.813000000     4.560000000     2.235000000
H     2.110000000     3.470000000     3.016000000
O    -2.056000000    -4.122000000     1.899000000
H    -1.999000000    -4.378000000     2.820000000
H    -1.306000000    -4.549000000     1.485000000
O    -2.925000000     2.921000000     0.974000000
H    -3.105000000     2.314000000     0.255000000
H    -2.087000000     3.322000000     0.745000000
O     4.891000000     0.816000000     5.359000000
H     5.581000000     0.491000000     5.936000000
H     4.667000000     1.676000000     5.714000000
O    -6.227000000     1.708000000    -0.152000000
H    -6.679000000     1.861000000    -0.981000000
H    -5.369000000     1.368000000    -0.405000000
O    -0.510000000     1.064000000     2.615000000
H    -0.175000000     0.911000000     1.732000000
H    -0.856000000     0.215000000     2.891000000
O     8.366000000    -0.977000000     1.218000000
H     7.719000000    -0.949000000     0.513000000
H     8.229000000    -1.828000000     1.634000000
O    -1.896000000    -3.496000000    -4.449000000
H    -2.592000000    -2.907000000    -4.157000000
H    -1.798000000    -4.124000000    -3.734000000
O    -1.001000000    -0.285000000    -4.335000000
H    -1.714000000    -0.918000000    -4.251000000
H    -0.284000000    -0.783000000    -4.728000000
O    -1.267000000     6.320000000    -1.745000000
H    -1.922000000     5.633000000    -1.871000000
H    -1.386000000     6.904000000    -2.495000000
O    -8.032000000    -0.218000000    -3.839000000
H    -7.286000000     0.345000000    -3.633000000
H    -8.795000000     0.275000000    -3.538000000
O     5.837000000     2.010000000     0.022000000
H     5.648000000     1.862000000     0.948000000
H     6.791000000     2.061000000    -0.023000000
O    -4.094000000    -2.044000000    -3.487000000
H    -4.945000000    -2.366000000    -3.785000000
H    -4.244000000    -1.772000000    -2.582000000
O    -5.279000000     3.482000000     1.888000000
H    -4.376000000     3.171000000     1.824000000
H    -5.797000000     2.806000000     1.452000000
O     5.188000000    -2.636000000    -0.523000000
H     4.800000000    -2.391000000     0.317000000
H     5.176000000    -3.593000000    -0.522000000
O    -5.419000000    -1.797000000     1.035000000
H    -4.715000000    -1.542000000     0.440000000
H    -5.715000000    -0.974000000     1.423000000
