158
-3003.28360
C    -0.817000000    -1.159000000     0.065000000
H    -1.316000000    -2.117000000     0.185000000
C     0.207000000    -0.826000000     0.984000000
H     0.538000000    -1.595000000     1.678000000
C     0.920000000     0.301000000     0.757000000
H     1.826000000     0.478000000     1.266000000
C     0.527000000     1.184000000    -0.213000000
H     1.192000000     2.033000000    -0.353000000
C    -0.499000000     0.886000000    -1.105000000
H    -0.729000000     1.503000000    -1.971000000
C    -1.209000000    -0.319000000    -1.023000000
C    -2.228000000    -0.708000000    -2.037000000
O    -2.711000000    -1.788000000    -1.910000000
O    -2.587000000    -0.030000000    -2.955000000
O    -2.186000000     3.330000000    -5.946000000
H    -1.559000000     3.739000000    -5.349000000
H    -2.921000000     3.942000000    -5.978000000
O    -3.166000000     2.305000000    -1.335000000
H    -2.600000000     3.017000000    -1.634000000
H    -2.955000000     1.572000000    -1.914000000
O     2.051000000     4.242000000    -2.307000000
H     1.815000000     4.642000000    -1.470000000
H     2.999000000     4.361000000    -2.371000000
O     1.716000000     1.890000000    -3.952000000
H     1.967000000     0.995000000    -3.723000000
H     2.324000000     2.443000000    -3.462000000
O     4.120000000     2.653000000     4.473000000
H     3.710000000     3.169000000     5.167000000
H     3.530000000     2.744000000     3.725000000
O     5.354000000     0.433000000     3.489000000
H     4.871000000     1.219000000     3.744000000
H     5.285000000    -0.148000000     4.246000000
O    -5.644000000     0.967000000    -4.223000000
H    -5.327000000     0.692000000    -3.362000000
H    -5.141000000     1.756000000    -4.423000000
O    -1.628000000    -4.207000000     5.102000000
H    -1.831000000    -3.484000000     4.509000000
H    -0.896000000    -3.887000000     5.628000000
O     2.614000000    -5.147000000     2.870000000
H     2.573000000    -4.209000000     2.683000000
H     2.871000000    -5.196000000     3.790000000
O    -0.243000000     4.369000000    -4.571000000
H    -0.759000000     4.940000000    -4.002000000
H     0.352000000     3.911000000    -3.976000000
O    -6.036000000     3.279000000    -1.861000000
H    -5.105000000     3.077000000    -1.765000000
H    -6.451000000     2.431000000    -2.016000000
O    -4.372000000     4.869000000     0.053000000
H    -4.954000000     4.619000000     0.771000000
H    -3.798000000     4.112000000    -0.064000000
O    -3.101000000    -4.226000000     0.290000000
H    -3.205000000    -3.588000000    -0.416000000
H    -3.996000000    -4.449000000     0.546000000
O     7.106000000    -0.549000000     1.435000000
H     6.731000000    -0.359000000     2.295000000
H     7.932000000    -0.065000000     1.421000000
O    -2.906000000    -2.552000000    -6.541000000
H    -2.598000000    -1.755000000    -6.972000000
H    -3.374000000    -2.240000000    -5.767000000
O     2.952000000    -2.350000000     2.487000000
H     3.626000000    -1.744000000     2.178000000
H     2.365000000    -1.807000000     3.012000000
O     2.699000000    -3.925000000    -0.079000000
H     2.734000000    -3.631000000     0.831000000
H     2.357000000    -4.817000000    -0.030000000
O     4.726000000     3.340000000    -2.763000000
H     5.669000000     3.431000000    -2.627000000
H     4.532000000     2.440000000    -2.500000000
O    -2.696000000    -2.500000000     3.015000000
H    -2.807000000    -2.609000000     2.071000000
H    -2.385000000    -1.601000000     3.118000000
O    -3.726000000    -6.020000000    -4.876000000
H    -2.901000000    -6.503000000    -4.927000000
H    -3.634000000    -5.471000000    -4.097000000
O     3.370000000     5.723000000     3.569000000
H     2.467000000     5.404000000     3.570000000
H     3.287000000     6.676000000     3.552000000
O    -1.681000000     1.968000000     1.735000000
H    -1.010000000     1.510000000     1.229000000
H    -1.375000000     2.874000000     1.774000000
O     2.360000000     0.956000000     6.281000000
H     3.120000000     1.264000000     5.788000000
H     2.540000000     1.215000000     7.185000000
O     7.077000000     3.519000000     2.611000000
H     6.366000000     3.315000000     2.004000000
H     6.664000000     4.046000000     3.295000000
O     0.537000000     1.773000000    -6.604000000
H    -0.349000000     1.655000000    -6.259000000
H     1.062000000     2.009000000    -5.839000000
O    -0.138000000    -0.803000000     7.013000000
H     0.661000000    -0.291000000     6.886000000
H    -0.847000000    -0.204000000     6.778000000
O     3.079000000    -1.270000000    -1.636000000
H     3.361000000    -1.782000000    -2.393000000
H     2.893000000    -1.922000000    -0.961000000
O    -1.307000000     4.394000000    -2.035000000
H    -1.138000000     5.308000000    -2.264000000
H    -0.442000000     4.028000000    -1.853000000
O    -5.104000000    -1.171000000    -0.507000000
H    -4.559000000    -0.700000000     0.124000000
H    -4.491000000    -1.458000000    -1.185000000
O     4.487000000     3.063000000     0.754000000
H     4.317000000     2.360000000     0.127000000
H     3.660000000     3.171000000     1.224000000
O    -6.738000000    -4.023000000    -0.885000000
H    -6.200000000    -3.897000000    -1.666000000
H    -7.512000000    -4.489000000    -1.199000000
O    -4.335000000    -1.537000000    -4.235000000
H    -4.427000000    -0.624000000    -4.508000000
H    -3.606000000    -1.530000000    -3.615000000
O    -1.614000000    -0.095000000     3.493000000
H    -1.789000000     0.671000000     2.946000000
H    -1.881000000     0.173000000     4.372000000
O    -5.787000000    -3.504000000    -3.407000000
H    -5.508000000    -4.227000000    -3.970000000
H    -5.079000000    -2.862000000    -3.473000000
O     6.250000000     4.974000000    -0.272000000
H     6.696000000     4.443000000    -0.932000000
H     5.677000000     4.358000000     0.184000000
O    -2.043000000     0.640000000    -5.560000000
H    -2.089000000     0.436000000    -4.626000000
H    -2.005000000     1.596000000    -5.594000000
O     1.178000000    -6.839000000     1.258000000
H     1.883000000    -6.495000000     1.805000000
H     0.463000000    -6.212000000     1.366000000
O    -0.107000000    -4.793000000    -2.974000000
H     0.078000000    -3.925000000    -3.333000000
H     0.741000000    -5.108000000    -2.659000000
O     0.078000000    -2.118000000    -4.033000000
H     0.443000000    -1.371000000    -4.507000000
H    -0.837000000    -1.883000000    -3.881000000
O    -6.847000000     0.350000000    -1.727000000
H    -6.244000000    -0.173000000    -1.199000000
H    -7.370000000    -0.295000000    -2.203000000
O     2.215000000     2.927000000     2.304000000
H     1.544000000     3.560000000     2.556000000
H     1.724000000     2.173000000     1.979000000
O     4.304000000     1.045000000    -1.003000000
H     5.218000000     0.766000000    -0.959000000
H     3.811000000     0.232000000    -1.124000000
O    -1.008000000    -5.440000000     2.282000000
H    -1.268000000    -5.895000000     3.083000000
H    -1.691000000    -4.785000000     2.145000000
O     1.250000000    -0.532000000     4.040000000
H     0.327000000    -0.410000000     3.816000000
H     1.395000000     0.051000000     4.785000000
O    -2.726000000    -3.995000000    -3.045000000
H    -2.747000000    -3.115000000    -2.668000000
H    -1.816000000    -4.276000000    -2.947000000
O     1.280000000     5.686000000    -0.190000000
H     1.959000000     6.330000000     0.012000000
H     0.636000000     5.789000000     0.511000000
O    -0.443000000     4.183000000     2.964000000
H    -0.472000000     3.682000000     3.779000000
H    -0.627000000     5.084000000     3.230000000
O    -4.018000000     0.914000000     1.147000000
H    -4.059000000     1.498000000     0.390000000
H    -3.189000000     1.133000000     1.574000000
