158
-3044.19914
C    -0.886000000    -1.168000000    -0.121000000
H    -1.550000000    -2.023000000    -0.021000000
C     0.137000000    -1.001000000     0.863000000
H     0.302000000    -1.756000000     1.627000000
C     0.845000000     0.198000000     0.864000000
H     1.620000000     0.387000000     1.628000000
C     0.615000000     1.133000000    -0.127000000
H     1.387000000     1.898000000    -0.124000000
C    -0.375000000     0.928000000    -1.042000000
H    -0.450000000     1.675000000    -1.828000000
C    -1.186000000    -0.174000000    -1.080000000
C    -2.214000000    -0.320000000    -2.128000000
O    -2.778000000    -1.379000000    -2.275000000
O    -2.470000000     0.573000000    -2.946000000
O    -3.051000000     3.460000000    -5.749000000
H    -2.809000000     4.012000000    -5.005000000
H    -4.003000000     3.383000000    -5.689000000
O    -4.095000000     2.445000000    -2.140000000
H    -3.605000000     3.173000000    -2.524000000
H    -3.602000000     1.665000000    -2.394000000
O    -0.065000000     3.897000000    -5.153000000
H    -0.348000000     4.173000000    -4.281000000
H    -0.043000000     2.941000000    -5.105000000
O    -0.464000000     1.066000000    -4.613000000
H     0.068000000     0.275000000    -4.525000000
H    -1.273000000     0.864000000    -4.143000000
O    -3.517000000    -4.684000000    -4.824000000
H    -4.086000000    -4.042000000    -4.400000000
H    -2.653000000    -4.271000000    -4.828000000
O    -1.129000000     4.526000000    -0.004000000
H    -1.150000000     4.080000000     0.842000000
H    -2.036000000     4.793000000    -0.156000000
O     5.085000000     2.581000000     4.735000000
H     6.020000000     2.778000000     4.685000000
H     4.693000000     3.374000000     5.100000000
O     3.939000000     0.415000000     3.620000000
H     4.012000000     1.363000000     3.728000000
H     4.491000000     0.052000000     4.312000000
O    -4.289000000     0.855000000    -5.112000000
H    -3.740000000     0.659000000    -4.354000000
H    -4.273000000     1.810000000    -5.180000000
O     1.201000000    -3.937000000     2.489000000
H     1.807000000    -3.203000000     2.587000000
H     0.386000000    -3.630000000     2.888000000
O    -6.772000000     3.458000000    -2.046000000
H    -5.854000000     3.319000000    -1.814000000
H    -7.133000000     2.577000000    -2.138000000
O    -4.354000000    -5.037000000     0.686000000
H    -4.525000000    -5.582000000    -0.083000000
H    -4.020000000    -4.215000000     0.327000000
O     0.898000000     3.121000000     6.074000000
H    -0.012000000     3.212000000     6.354000000
H     0.872000000     2.455000000     5.387000000
O    -2.347000000    -5.336000000     2.693000000
H    -3.067000000    -5.807000000     2.275000000
H    -2.521000000    -5.416000000     3.631000000
O     3.059000000    -2.171000000     3.085000000
H     3.906000000    -2.534000000     3.343000000
H     3.219000000    -1.231000000     2.996000000
O     1.707000000    -3.910000000    -2.687000000
H     1.142000000    -3.836000000    -1.917000000
H     2.427000000    -4.472000000    -2.402000000
O    -0.142000000    -7.048000000    -0.440000000
H    -0.135000000    -6.090000000    -0.445000000
H    -1.048000000    -7.281000000    -0.643000000
O     3.216000000     3.513000000    -3.385000000
H     2.263000000     3.422000000    -3.361000000
H     3.513000000     3.144000000    -2.554000000
O    -1.488000000    -2.914000000     2.924000000
H    -1.944000000    -3.736000000     2.743000000
H    -2.078000000    -2.235000000     2.596000000
O     3.172000000     4.744000000     5.358000000
H     2.841000000     4.707000000     4.461000000
H     2.396000000     4.624000000     5.905000000
O    -1.934000000     1.567000000     1.497000000
H    -1.156000000     1.242000000     1.043000000
H    -1.596000000     2.210000000     2.121000000
O    -0.460000000    -1.273000000     4.777000000
H    -1.172000000    -1.271000000     5.417000000
H    -0.801000000    -1.782000000     4.041000000
O     5.382000000     3.920000000     1.913000000
H     4.639000000     4.279000000     1.427000000
H     5.385000000     4.405000000     2.738000000
O     0.882000000    -1.549000000    -4.014000000
H     0.956000000    -2.133000000    -3.260000000
H     1.629000000    -1.776000000    -4.568000000
O    -2.338000000     4.419000000    -3.242000000
H    -2.632000000     5.278000000    -2.938000000
H    -1.383000000     4.465000000    -3.203000000
O    -4.384000000    -2.450000000    -0.343000000
H    -4.019000000    -1.888000000     0.340000000
H    -3.917000000    -2.196000000    -1.138000000
O     3.000000000     4.340000000     0.705000000
H     3.212000000     3.498000000     0.302000000
H     2.765000000     4.122000000     1.607000000
O    -4.708000000    -2.722000000    -3.752000000
H    -5.541000000    -2.330000000    -3.491000000
H    -4.044000000    -2.171000000    -3.337000000
O    -3.300000000    -0.977000000     2.157000000
H    -2.950000000    -0.252000000     1.638000000
H    -3.527000000    -0.581000000     2.998000000
O     7.209000000     1.382000000     2.813000000
H     7.184000000     2.202000000     2.320000000
H     6.626000000     0.795000000     2.332000000
O     2.352000000    -3.086000000     5.697000000
H     3.028000000    -3.764000000     5.715000000
H     2.306000000    -2.818000000     4.779000000
O    -2.386000000     0.247000000    -6.863000000
H    -2.119000000     1.166000000    -6.888000000
H    -3.038000000     0.206000000    -6.163000000
O     4.529000000    -0.886000000    -2.071000000
H     4.047000000    -0.692000000    -2.875000000
H     4.197000000    -1.740000000    -1.793000000
O     6.555000000    -1.547000000     0.184000000
H     6.030000000    -1.253000000    -0.561000000
H     7.217000000    -0.865000000     0.295000000
O     2.891000000    -5.784000000     1.788000000
H     3.289000000    -5.972000000     2.639000000
H     2.405000000    -4.971000000     1.925000000
O    -0.176000000    -4.413000000    -0.705000000
H     0.054000000    -3.716000000    -0.091000000
H    -0.968000000    -4.096000000    -1.140000000
O    -0.302000000    -4.949000000    -4.774000000
H    -0.679000000    -4.095000000    -4.984000000
H     0.317000000    -4.771000000    -4.066000000
O    -1.632000000    -2.626000000    -5.370000000
H    -0.893000000    -2.093000000    -5.077000000
H    -2.048000000    -2.104000000    -6.055000000
O    -6.837000000    -1.638000000    -0.496000000
H    -6.010000000    -2.067000000    -0.276000000
H    -6.753000000    -0.756000000    -0.133000000
O    -7.171000000    -1.495000000    -3.228000000
H    -7.901000000    -2.034000000    -3.533000000
H    -7.084000000    -1.712000000    -2.300000000
O     1.270000000     6.122000000    -0.575000000
H     0.351000000     6.008000000    -0.333000000
H     1.759000000     5.851000000     0.202000000
O     1.962000000     3.550000000     2.956000000
H     1.188000000     4.054000000     3.204000000
H     1.744000000     2.647000000     3.185000000
O     3.845000000     1.955000000    -1.088000000
H     4.747000000     2.007000000    -1.404000000
H     3.689000000     1.019000000    -0.963000000
O     1.223000000     1.180000000     4.325000000
H     2.040000000     0.749000000     4.071000000
H     0.661000000     0.467000000     4.629000000
O    -2.446000000    -4.316000000    -1.950000000
H    -2.576000000    -3.474000000    -2.386000000
H    -3.020000000    -4.920000000    -2.421000000
O     0.192000000     4.403000000    -2.450000000
H     0.858000000     5.052000000    -2.223000000
H    -0.226000000     4.187000000    -1.617000000
O    -1.460000000     3.986000000     2.892000000
H    -2.209000000     4.108000000     3.476000000
H    -0.878000000     4.720000000     3.093000000
O    -4.445000000     1.891000000     0.589000000
H    -4.346000000     1.907000000    -0.363000000
H    -3.579000000     2.126000000     0.923000000
