158
-3006.50014
C    -1.239000000    -0.765000000    -0.269000000
H    -2.189000000    -1.291000000    -0.317000000
C    -0.022000000    -1.326000000     0.053000000
H     0.029000000    -2.377000000     0.328000000
C     1.079000000    -0.507000000     0.278000000
H     1.985000000    -0.924000000     0.467000000
C     0.985000000     0.819000000     0.118000000
H     1.833000000     1.452000000     0.364000000
C    -0.224000000     1.454000000    -0.306000000
H    -0.360000000     2.530000000    -0.388000000
C    -1.320000000     0.611000000    -0.382000000
C    -2.632000000     1.264000000    -0.796000000
O    -3.614000000     0.596000000    -1.132000000
O    -2.681000000     2.477000000    -0.928000000
O    -1.639000000     3.578000000    -5.525000000
H    -2.500000000     3.716000000    -5.132000000
H    -1.540000000     4.301000000    -6.145000000
O    -5.163000000     3.482000000    -0.327000000
H    -5.556000000     2.643000000    -0.570000000
H    -4.224000000     3.353000000    -0.457000000
O     0.166000000     4.519000000    -2.297000000
H     0.065000000     3.618000000    -2.604000000
H    -0.715000000     4.891000000    -2.352000000
O     0.500000000     2.367000000    -3.915000000
H     0.539000000     1.572000000    -3.384000000
H    -0.418000000     2.436000000    -4.177000000
O    -4.392000000    -4.462000000    -3.154000000
H    -4.406000000    -3.554000000    -2.852000000
H    -3.550000000    -4.803000000    -2.851000000
O     0.313000000     0.820000000     3.363000000
H     0.556000000     0.023000000     3.835000000
H     0.275000000     0.553000000     2.445000000
O     5.177000000     0.953000000     2.164000000
H     6.042000000     0.884000000     2.570000000
H     5.351000000     1.292000000     1.286000000
O     2.045000000    -0.881000000     4.840000000
H     1.619000000    -1.483000000     5.451000000
H     2.581000000    -0.315000000     5.396000000
O    -4.184000000     2.021000000    -3.535000000
H    -3.454000000     1.507000000    -3.879000000
H    -4.211000000     1.807000000    -2.603000000
O    -6.249000000     3.640000000    -3.885000000
H    -5.508000000     3.035000000    -3.848000000
H    -7.000000000     3.117000000    -3.605000000
O     0.883000000    -3.810000000     4.059000000
H     1.000000000    -2.860000000     4.063000000
H     1.595000000    -4.136000000     3.509000000
O    -3.304000000     3.035000000     2.839000000
H    -3.711000000     2.422000000     2.227000000
H    -3.548000000     2.706000000     3.704000000
O    -7.328000000     1.743000000    -1.140000000
H    -7.475000000     1.386000000    -2.016000000
H    -8.132000000     1.541000000    -0.661000000
O    -0.129000000     6.053000000    -4.616000000
H     0.365000000     5.546000000    -3.972000000
H     0.262000000     5.816000000    -5.457000000
O    -2.204000000     0.106000000     4.555000000
H    -3.034000000     0.130000000     4.079000000
H    -1.607000000     0.629000000     4.021000000
O    -2.706000000     6.878000000     0.565000000
H    -2.593000000     7.706000000     0.099000000
H    -1.902000000     6.778000000     1.074000000
O     5.610000000     0.493000000     5.217000000
H     4.734000000     0.492000000     5.604000000
H     5.699000000    -0.375000000     4.824000000
O     3.377000000     3.271000000    -2.802000000
H     3.516000000     2.350000000    -3.024000000
H     2.513000000     3.290000000    -2.390000000
O     2.999000000     4.421000000     0.956000000
H     2.971000000     3.690000000     1.573000000
H     3.875000000     4.377000000     0.573000000
O    -0.713000000     3.575000000     3.909000000
H    -0.239000000     2.745000000     3.852000000
H    -1.428000000     3.485000000     3.279000000
O    -0.392000000    -5.287000000    -2.163000000
H    -0.621000000    -4.483000000    -2.629000000
H    -0.758000000    -5.168000000    -1.287000000
O     1.844000000     6.059000000    -0.919000000
H     2.404000000     5.499000000    -0.381000000
H     1.085000000     5.513000000    -1.122000000
O    -2.308000000     5.102000000    -1.655000000
H    -2.519000000     5.448000000    -0.788000000
H    -2.439000000     4.157000000    -1.574000000
O    -5.583000000    -2.518000000     1.429000000
H    -5.897000000    -1.947000000     2.130000000
H    -5.140000000    -3.234000000     1.883000000
O     5.393000000    -3.540000000    -3.026000000
H     5.523000000    -4.365000000    -3.494000000
H     5.714000000    -2.869000000    -3.629000000
O    -2.702000000    -1.902000000    -3.925000000
H    -2.574000000    -0.959000000    -3.815000000
H    -3.224000000    -1.981000000    -4.724000000
O     2.160000000    -4.592000000     0.054000000
H     2.302000000    -4.801000000     0.977000000
H     2.778000000    -3.885000000    -0.130000000
O     0.639000000    -6.958000000     0.112000000
H     0.687000000    -6.025000000     0.321000000
H     0.213000000    -6.989000000    -0.745000000
O     2.743000000     2.405000000     3.103000000
H     1.991000000     1.918000000     3.439000000
H     3.467000000     1.779000000     3.134000000
O    -7.471000000    -1.559000000    -1.965000000
H    -6.580000000    -1.903000000    -1.903000000
H    -7.629000000    -1.469000000    -2.904000000
O    -4.563000000    -1.643000000    -5.969000000
H    -5.160000000    -2.391000000    -5.980000000
H    -4.847000000    -1.121000000    -5.218000000
O     3.704000000    -2.868000000    -1.081000000
H     3.811000000    -1.919000000    -1.155000000
H     4.436000000    -3.230000000    -1.579000000
O     5.616000000     3.388000000     0.158000000
H     6.090000000     3.521000000     0.979000000
H     5.887000000     2.518000000    -0.135000000
O     3.573000000    -2.051000000     2.893000000
H     4.387000000    -1.630000000     2.616000000
H     3.136000000    -1.393000000     3.435000000
O    -0.387000000    -3.201000000    -4.239000000
H     0.293000000    -2.580000000    -3.979000000
H    -1.200000000    -2.697000000    -4.201000000
O    -2.286000000    -4.165000000     0.229000000
H    -3.211000000    -3.990000000     0.054000000
H    -2.160000000    -3.895000000     1.139000000
O     3.266000000    -4.648000000     3.038000000
H     3.482000000    -3.720000000     2.944000000
H     3.997000000    -5.014000000     3.536000000
O     0.084000000    -0.226000000    -2.930000000
H    -0.372000000    -0.452000000    -2.119000000
H     0.773000000    -0.886000000    -3.010000000
O    -2.112000000     0.801000000    -4.686000000
H    -1.175000000     0.819000000    -4.492000000
H    -2.165000000     0.460000000    -5.579000000
O    -3.743000000     5.038000000    -4.117000000
H    -3.269000000     5.208000000    -3.303000000
H    -4.568000000     4.643000000    -3.836000000
O     0.477000000     5.717000000     1.994000000
H     0.075000000     5.178000000     2.675000000
H     1.203000000     5.185000000     1.666000000
O     6.415000000     0.756000000    -0.829000000
H     6.671000000     0.993000000    -1.720000000
H     6.762000000    -0.128000000    -0.707000000
O    -4.733000000    -1.857000000    -1.240000000
H    -4.967000000    -2.221000000    -0.386000000
H    -4.420000000    -0.974000000    -1.046000000
O    -2.495000000    -3.101000000     2.862000000
H    -1.743000000    -3.189000000     3.448000000
H    -3.250000000    -3.042000000     3.448000000
O    -6.891000000     5.474000000    -2.097000000
H    -6.452000000     4.926000000    -1.447000000
H    -6.616000000     5.112000000    -2.940000000
O    -4.822000000     5.689000000     1.344000000
H    -4.032000000     6.106000000     1.002000000
H    -5.034000000     5.014000000     0.699000000
O    -4.680000000     0.456000000     2.177000000
H    -5.609000000     0.506000000     2.401000000
H    -4.668000000     0.155000000     1.268000000
O     2.197000000    -2.003000000    -3.289000000
H     2.506000000    -2.222000000    -2.410000000
H     2.591000000    -2.667000000    -3.855000000
