158
-3061.11253
C    -1.468000000    -0.204000000    -0.115000000
H    -2.522000000    -0.471000000    -0.106000000
C    -0.503000000    -1.181000000    -0.036000000
H    -0.770000000    -2.235000000    -0.063000000
C     0.812000000    -0.867000000     0.100000000
H     1.629000000    -1.644000000     0.130000000
C     1.210000000     0.466000000     0.172000000
H     2.268000000     0.684000000     0.292000000
C     0.293000000     1.428000000    -0.053000000
H     0.538000000     2.478000000    -0.198000000
C    -1.040000000     1.116000000    -0.062000000
C    -1.997000000     2.205000000    -0.264000000
O    -3.188000000     1.983000000    -0.346000000
O    -1.688000000     3.382000000    -0.372000000
O    -6.112000000     2.817000000     2.109000000
H    -5.775000000     3.639000000     2.465000000
H    -5.710000000     2.748000000     1.243000000
O    -4.356000000     0.517000000    -2.061000000
H    -3.973000000     1.190000000    -1.497000000
H    -3.605000000     0.023000000    -2.389000000
O     1.927000000     3.128000000    -3.573000000
H     1.229000000     3.673000000    -3.209000000
H     1.725000000     2.245000000    -3.265000000
O     0.240000000     1.498000000     3.204000000
H     0.402000000     1.431000000     2.263000000
H    -0.710000000     1.410000000     3.290000000
O     4.198000000    -1.400000000     2.003000000
H     4.695000000    -0.587000000     1.911000000
H     3.426000000    -1.153000000     2.513000000
O     1.880000000    -0.764000000     3.485000000
H     1.399000000     0.063000000     3.494000000
H     1.207000000    -1.430000000     3.343000000
O    -0.113000000     6.231000000     2.444000000
H     0.644000000     5.650000000     2.376000000
H    -0.865000000     5.641000000     2.488000000
O    -5.233000000     5.919000000     1.620000000
H    -6.066000000     5.967000000     1.152000000
H    -4.633000000     5.505000000     1.001000000
O     0.679000000    -5.893000000     0.032000000
H     0.866000000    -6.810000000     0.235000000
H     1.166000000    -5.398000000     0.690000000
O    -5.625000000     3.209000000    -0.456000000
H    -4.928000000     2.564000000    -0.341000000
H    -5.174000000     3.998000000    -0.758000000
O     1.261000000     6.659000000    -1.308000000
H     1.764000000     6.518000000    -0.506000000
H     0.362000000     6.429000000    -1.070000000
O    -8.118000000     0.657000000    -0.872000000
H    -8.425000000     0.316000000    -0.031000000
H    -7.178000000     0.478000000    -0.873000000
O    -2.638000000    -2.116000000     2.962000000
H    -2.498000000    -2.926000000     2.471000000
H    -3.573000000    -1.936000000     2.866000000
O     1.268000000    -2.293000000    -3.744000000
H     1.499000000    -2.677000000    -2.898000000
H     0.382000000    -2.611000000    -3.918000000
O    -0.377000000     4.284000000    -2.707000000
H    -0.545000000     4.342000000    -1.767000000
H    -1.043000000     3.679000000    -3.033000000
O     0.709000000     1.229000000    -5.562000000
H     0.892000000     1.022000000    -4.645000000
H     1.413000000     1.824000000    -5.819000000
O    -6.161000000     0.464000000    -4.262000000
H    -6.085000000     1.398000000    -4.457000000
H    -5.531000000     0.314000000    -3.558000000
O     3.283000000     5.727000000     1.127000000
H     3.650000000     6.594000000     1.303000000
H     3.614000000     5.179000000     1.838000000
O     3.946000000    -1.534000000     5.288000000
H     3.040000000    -1.248000000     5.169000000
H     4.387000000    -1.277000000     4.479000000
O     5.716000000     2.730000000     0.732000000
H     6.124000000     1.935000000     1.072000000
H     6.224000000     2.945000000    -0.050000000
O    -4.008000000    -5.685000000    -0.971000000
H    -4.313000000    -4.890000000    -1.407000000
H    -3.137000000    -5.461000000    -0.644000000
O     2.785000000    -4.502000000     5.110000000
H     3.082000000    -3.678000000     4.724000000
H     3.117000000    -4.478000000     6.008000000
O    -3.520000000     5.199000000    -0.736000000
H    -2.864000000     5.731000000    -1.186000000
H    -3.136000000     4.322000000    -0.705000000
O    -3.049000000    -4.816000000     2.073000000
H    -2.890000000    -5.671000000     2.472000000
H    -2.748000000    -4.912000000     1.170000000
O    -1.578000000    -4.780000000    -0.571000000
H    -1.446000000    -4.272000000    -1.372000000
H    -0.709000000    -5.116000000    -0.355000000
O    -2.179000000     0.613000000    -5.064000000
H    -2.586000000     1.426000000    -4.766000000
H    -1.257000000     0.839000000    -5.188000000
O    -4.822000000    -0.430000000     1.980000000
H    -4.767000000    -0.334000000     1.029000000
H    -5.679000000    -0.070000000     2.208000000
O     4.828000000    -6.267000000    -0.204000000
H     5.032000000    -6.752000000     0.595000000
H     4.682000000    -5.368000000     0.092000000
O     1.636000000    -4.464000000     2.303000000
H     1.686000000    -4.788000000     3.202000000
H     0.950000000    -3.797000000     2.326000000
O     3.985000000     3.084000000     2.818000000
H     4.249000000     2.412000000     3.447000000
H     4.659000000     3.054000000     2.139000000
O     6.880000000    -1.086000000    -1.594000000
H     7.206000000    -1.634000000    -2.308000000
H     7.106000000    -1.568000000    -0.799000000
O    -3.062000000     3.422000000    -4.130000000
H    -2.927000000     4.366000000    -4.224000000
H    -4.006000000     3.303000000    -4.234000000
O     2.778000000    -5.163000000    -4.251000000
H     2.396000000    -4.663000000    -3.530000000
H     3.565000000    -5.559000000    -3.878000000
O    -1.589000000     7.113000000    -3.332000000
H    -0.778000000     6.811000000    -3.741000000
H    -1.320000000     7.419000000    -2.466000000
O    -1.029000000    -4.060000000    -3.144000000
H    -1.144000000    -4.957000000    -3.457000000
H    -1.662000000    -3.548000000    -3.648000000
O    -4.658000000    -3.274000000    -2.379000000
H    -3.981000000    -2.715000000    -2.760000000
H    -5.322000000    -3.347000000    -3.065000000
O     1.611000000     3.963000000     3.696000000
H     1.288000000     3.072000000     3.832000000
H     2.531000000     3.849000000     3.455000000
O     0.857000000     0.295000000    -3.047000000
H     1.045000000    -0.608000000    -3.304000000
H     0.808000000     0.267000000    -2.092000000
O    -3.062000000    -1.426000000    -3.701000000
H    -3.155000000    -2.007000000    -4.456000000
H    -2.520000000    -0.704000000    -4.020000000
O     2.414000000    -4.073000000    -1.757000000
H     2.098000000    -4.634000000    -1.049000000
H     3.119000000    -3.562000000    -1.361000000
O     3.426000000     3.507000000    -0.703000000
H     3.179000000     4.131000000    -0.020000000
H     4.152000000     3.012000000    -0.324000000
O     4.770000000    -2.716000000    -0.310000000
H     4.790000000    -2.208000000     0.501000000
H     5.243000000    -2.175000000    -0.943000000
O    -1.417000000     7.147000000    -0.387000000
H    -1.057000000     7.950000000    -0.010000000
H    -1.493000000     6.547000000     0.355000000
O    -0.219000000    -2.549000000     3.484000000
H    -1.023000000    -2.192000000     3.107000000
H    -0.508000000    -3.013000000     4.270000000
O    -2.888000000     7.238000000     2.347000000
H    -2.839000000     6.346000000     2.690000000
H    -3.806000000     7.349000000     2.097000000
O    -2.145000000     4.188000000     2.135000000
H    -2.044000000     4.098000000     1.187000000
H    -2.181000000     3.288000000     2.458000000
O    -2.921000000     1.586000000     2.899000000
H    -3.366000000     1.711000000     3.738000000
H    -3.552000000     1.108000000     2.362000000
O    -5.802000000    -1.245000000    -0.660000000
H    -5.628000000    -2.115000000    -1.020000000
H    -5.349000000    -0.645000000    -1.253000000
