158
-3030.28359
C    -0.682000000     1.102000000    -0.715000000
H    -1.310000000     1.844000000    -1.202000000
C    -1.236000000     0.045000000    -0.038000000
H    -2.316000000    -0.068000000     0.022000000
C    -0.538000000    -0.979000000     0.512000000
H    -0.995000000    -1.867000000     0.906000000
C     0.790000000    -0.909000000     0.524000000
H     1.321000000    -1.680000000     1.077000000
C     1.463000000     0.177000000    -0.085000000
H     2.550000000     0.219000000    -0.085000000
C     0.701000000     1.246000000    -0.759000000
C     1.406000000     2.495000000    -1.261000000
O     0.687000000     3.422000000    -1.701000000
O     2.601000000     2.442000000    -1.333000000
O    -0.855000000     1.507000000     3.147000000
H    -0.550000000     1.179000000     2.301000000
H    -1.628000000     2.030000000     2.936000000
O    -0.009000000    -0.589000000     4.646000000
H    -0.383000000     0.098000000     4.095000000
H    -0.349000000    -1.404000000     4.277000000
O    -1.703000000     4.284000000    -2.649000000
H    -0.806000000     4.032000000    -2.430000000
H    -1.722000000     4.294000000    -3.606000000
O    -3.300000000     3.083000000     2.436000000
H    -3.541000000     3.082000000     1.509000000
H    -3.933000000     2.497000000     2.849000000
O     1.511000000    -3.805000000     2.524000000
H     0.740000000    -3.383000000     2.903000000
H     2.235000000    -3.533000000     3.088000000
O    -2.459000000    -2.060000000    -2.777000000
H    -2.510000000    -1.234000000    -3.257000000
H    -1.553000000    -2.348000000    -2.890000000
O     1.220000000     6.113000000    -5.366000000
H     0.924000000     5.228000000    -5.578000000
H     1.032000000     6.212000000    -4.433000000
O    -1.547000000    -7.705000000     0.370000000
H    -1.788000000    -6.781000000     0.314000000
H    -0.749000000    -7.714000000     0.898000000
O     2.852000000     1.625000000    -3.814000000
H     2.286000000     0.857000000    -3.735000000
H     2.755000000     2.082000000    -2.979000000
O    -3.912000000     2.895000000    -3.134000000
H    -3.185000000     3.376000000    -2.739000000
H    -4.571000000     3.565000000    -3.318000000
O    -1.966000000    -5.014000000     0.240000000
H    -2.415000000    -4.823000000     1.063000000
H    -2.618000000    -4.831000000    -0.436000000
O     0.591000000    -0.557000000    -4.354000000
H     1.182000000    -0.649000000    -5.101000000
H     0.642000000    -1.400000000    -3.903000000
O    -1.971000000     0.387000000    -4.147000000
H    -1.958000000     1.344000000    -4.127000000
H    -1.068000000     0.132000000    -3.956000000
O     1.086000000    -6.248000000     4.710000000
H     0.626000000    -7.021000000     5.037000000
H     0.492000000    -5.873000000     4.060000000
O     3.053000000    -4.765000000    -1.976000000
H     2.695000000    -5.441000000    -2.551000000
H     2.373000000    -4.628000000    -1.316000000
O     5.327000000     1.505000000    -5.473000000
H     5.741000000     0.694000000    -5.178000000
H     4.446000000     1.473000000    -5.100000000
O     4.122000000    -5.068000000     1.873000000
H     4.377000000    -4.705000000     2.722000000
H     3.333000000    -4.583000000     1.633000000
O     5.206000000     2.864000000    -2.046000000
H     5.058000000     2.760000000    -2.986000000
H     4.488000000     2.382000000    -1.635000000
O    -6.516000000    -2.497000000     3.898000000
H    -6.628000000    -3.427000000     3.702000000
H    -5.593000000    -2.323000000     3.711000000
O    -2.137000000    -1.402000000     6.412000000
H    -2.631000000    -0.726000000     5.948000000
H    -1.223000000    -1.127000000     6.335000000
O     2.023000000     6.868000000     0.704000000
H     1.343000000     6.485000000     1.257000000
H     2.456000000     6.116000000     0.300000000
O    -0.987000000    -2.968000000     3.813000000
H    -1.807000000    -2.599000000     3.485000000
H    -1.077000000    -3.911000000     3.676000000
O     5.933000000     6.037000000    -0.779000000
H     5.998000000     5.868000000    -1.719000000
H     4.995000000     6.000000000    -0.594000000
O    -1.272000000     3.038000000    -5.425000000
H    -0.318000000     3.035000000    -5.504000000
H    -1.576000000     3.480000000    -6.218000000
O     3.191000000     4.713000000    -0.190000000
H     2.931000000     3.903000000    -0.628000000
H     3.631000000     4.423000000     0.609000000
O    -4.221000000    -4.349000000    -3.753000000
H    -4.912000000    -3.764000000    -4.066000000
H    -3.466000000    -3.776000000    -3.618000000
O     3.656000000     3.708000000     2.325000000
H     3.657000000     2.755000000     2.236000000
H     2.938000000     3.891000000     2.932000000
O     0.817000000    -4.460000000    -0.050000000
H     1.176000000    -4.373000000     0.834000000
H    -0.114000000    -4.633000000     0.086000000
O    -4.748000000    -1.547000000    -1.609000000
H    -4.857000000    -0.789000000    -2.184000000
H    -3.852000000    -1.843000000    -1.769000000
O     4.782000000    -1.309000000     0.181000000
H     5.087000000    -0.411000000     0.052000000
H     5.370000000    -1.668000000     0.845000000
O     3.324000000     0.648000000     2.756000000
H     2.970000000    -0.020000000     2.170000000
H     3.130000000     0.323000000     3.635000000
O    -3.810000000     0.230000000     4.909000000
H    -4.071000000     0.745000000     4.145000000
H    -4.395000000     0.524000000     5.607000000
O     0.913000000     5.825000000    -2.570000000
H     0.980000000     4.953000000    -2.181000000
H     0.545000000     6.371000000    -1.874000000
O     5.944000000    -2.022000000    -2.429000000
H     5.303000000    -2.339000000    -3.065000000
H     5.418000000    -1.715000000    -1.691000000
O    -5.405000000    -1.469000000     1.142000000
H    -4.917000000    -1.466000000     0.319000000
H    -5.666000000    -0.557000000     1.269000000
O    -5.310000000     1.514000000     0.653000000
H    -6.054000000     1.552000000     0.052000000
H    -4.629000000     2.032000000     0.224000000
O    -5.926000000    -4.366000000    -0.740000000
H    -6.491000000    -3.953000000    -0.087000000
H    -5.076000000    -3.943000000    -0.623000000
O     1.360000000     3.030000000    -5.671000000
H     1.670000000     2.489000000    -4.945000000
H     2.132000000     3.153000000    -6.224000000
O    -5.236000000     0.689000000    -3.293000000
H    -4.697000000     1.477000000    -3.215000000
H    -5.195000000     0.462000000    -4.222000000
O     5.375000000     1.457000000     0.914000000
H     4.782000000     2.166000000     0.665000000
H     5.180000000     1.296000000     1.837000000
O    -5.507000000     1.501000000     3.142000000
H    -5.668000000     1.334000000     2.213000000
H    -6.381000000     1.558000000     3.529000000
O    -3.678000000    -2.374000000     3.342000000
H    -3.816000000    -1.615000000     3.908000000
H    -4.076000000    -2.126000000     2.508000000
O     3.838000000     4.980000000    -3.187000000
H     4.424000000     4.523000000    -2.583000000
H     2.999000000     5.015000000    -2.726000000
O    -4.519000000    -4.719000000     1.959000000
H    -4.048000000    -4.183000000     2.596000000
H    -5.437000000    -4.655000000     2.224000000
O     0.186000000    -3.222000000    -2.793000000
H     0.788000000    -2.934000000    -2.107000000
H     0.320000000    -4.168000000    -2.847000000
O    -1.290000000    -5.460000000     3.043000000
H    -0.886000000    -6.095000000     2.451000000
H    -1.936000000    -5.968000000     3.534000000
O    -3.817000000     3.436000000    -0.181000000
H    -3.063000000     3.481000000    -0.769000000
H    -4.015000000     4.349000000     0.026000000
O    -1.263000000     6.310000000    -0.751000000
H    -1.397000000     5.987000000    -1.642000000
H    -1.957000000     5.896000000    -0.238000000
