158
-3047.07955
C    -0.792000000     0.922000000    -0.850000000
H    -1.451000000     1.597000000    -1.391000000
C    -1.273000000    -0.048000000     0.042000000
H    -2.341000000    -0.220000000     0.149000000
C    -0.428000000    -0.879000000     0.765000000
H    -0.837000000    -1.647000000     1.448000000
C     0.929000000    -0.755000000     0.597000000
H     1.482000000    -1.486000000     1.181000000
C     1.493000000     0.281000000    -0.202000000
H     2.560000000     0.417000000    -0.364000000
C     0.593000000     1.129000000    -0.889000000
C     1.141000000     2.215000000    -1.808000000
O     0.335000000     3.086000000    -2.245000000
O     2.320000000     2.276000000    -2.095000000
O     0.286000000     1.172000000     3.052000000
H     0.318000000     0.953000000     2.121000000
H    -0.507000000     1.700000000     3.146000000
O     0.752000000    -0.991000000     4.694000000
H     0.865000000    -0.539000000     3.858000000
H    -0.134000000    -0.762000000     4.973000000
O    -1.799000000     4.939000000    -2.044000000
H    -1.175000000     4.218000000    -2.120000000
H    -1.823000000     5.328000000    -2.919000000
O    -2.360000000     2.345000000     2.632000000
H    -2.148000000     2.906000000     1.886000000
H    -3.281000000     2.529000000     2.816000000
O     0.602000000    -4.421000000     2.253000000
H     0.021000000    -4.442000000     3.014000000
H     1.445000000    -4.131000000     2.604000000
O    -2.448000000    -1.333000000    -3.837000000
H    -2.257000000    -0.397000000    -3.904000000
H    -1.728000000    -1.687000000    -3.314000000
O     1.657000000     6.732000000    -3.335000000
H     1.037000000     6.055000000    -3.605000000
H     2.165000000     6.325000000    -2.633000000
O    -1.888000000    -7.899000000    -0.097000000
H    -2.260000000    -7.018000000    -0.140000000
H    -1.077000000    -7.793000000     0.400000000
O     3.285000000     1.111000000    -4.106000000
H     2.423000000     0.988000000    -4.502000000
H     3.102000000     1.488000000    -3.245000000
O    -2.518000000    -5.058000000    -0.654000000
H    -3.420000000    -5.069000000    -0.333000000
H    -2.603000000    -5.008000000    -1.606000000
O    -0.272000000    -4.809000000     4.918000000
H    -0.757000000    -5.577000000     5.219000000
H    -0.168000000    -4.269000000     5.701000000
O     0.707000000     0.395000000    -5.193000000
H     0.879000000     0.730000000    -6.073000000
H     0.348000000    -0.481000000    -5.336000000
O    -1.387000000     1.688000000    -4.190000000
H    -1.003000000     2.348000000    -3.612000000
H    -0.641000000     1.165000000    -4.484000000
O     2.877000000    -2.953000000    -0.589000000
H     2.841000000    -2.514000000    -1.439000000
H     2.018000000    -3.365000000    -0.496000000
O     4.212000000     1.450000000    -7.096000000
H     4.584000000     0.569000000    -7.123000000
H     4.101000000     1.635000000    -6.163000000
O     3.573000000    -6.128000000     1.720000000
H     2.985000000    -5.559000000     2.217000000
H     4.209000000    -5.530000000     1.327000000
O     3.465000000    -3.214000000     2.171000000
H     3.398000000    -3.230000000     1.216000000
H     3.778000000    -2.332000000     2.374000000
O    -6.999000000     0.109000000     4.172000000
H    -7.580000000     0.361000000     3.454000000
H    -6.250000000    -0.303000000     3.741000000
O     2.271000000    -2.335000000     6.688000000
H     3.104000000    -1.926000000     6.454000000
H     1.724000000    -2.226000000     5.910000000
O    -2.130000000    -1.715000000     5.358000000
H    -2.139000000    -2.337000000     4.631000000
H    -2.338000000    -0.872000000     4.955000000
O     0.103000000     6.101000000    -0.550000000
H    -0.253000000     5.510000000    -1.214000000
H    -0.556000000     6.789000000    -0.464000000
O    -2.703000000    -3.421000000     3.279000000
H    -2.001000000    -4.040000000     3.479000000
H    -3.262000000    -3.887000000     2.657000000
O     4.933000000     5.138000000     1.320000000
H     4.729000000     4.213000000     1.184000000
H     5.539000000     5.143000000     2.061000000
O    -1.704000000     5.756000000    -4.832000000
H    -0.902000000     5.237000000    -4.768000000
H    -1.841000000     5.870000000    -5.772000000
O     3.508000000     2.642000000     1.300000000
H     3.259000000     2.287000000     0.447000000
H     2.766000000     3.189000000     1.558000000
O     0.109000000    -7.670000000     1.800000000
H     0.614000000    -6.868000000     1.934000000
H     0.761000000    -8.370000000     1.814000000
O     1.132000000     4.558000000     1.329000000
H     1.498000000     5.164000000     1.973000000
H     0.506000000     5.086000000     0.832000000
O     0.275000000    -4.372000000    -0.499000000
H     0.264000000    -4.214000000     0.445000000
H    -0.630000000    -4.595000000    -0.716000000
O    -5.220000000    -1.059000000    -3.942000000
H    -5.711000000    -0.384000000    -4.412000000
H    -4.307000000    -0.778000000    -4.006000000
O     1.772000000     2.934000000     4.704000000
H     2.385000000     2.374000000     5.180000000
H     1.438000000     2.379000000     3.999000000
O    -2.902000000     0.587000000     4.521000000
H    -2.757000000     1.128000000     3.745000000
H    -3.582000000     1.049000000     5.012000000
O     2.898000000    -1.931000000    -3.384000000
H     2.308000000    -2.147000000    -4.105000000
H     3.439000000    -1.217000000    -3.723000000
O     2.607000000     4.858000000    -1.298000000
H     2.324000000     3.944000000    -1.273000000
H     1.930000000     5.333000000    -0.817000000
O     6.007000000     1.533000000    -4.400000000
H     6.443000000     1.563000000    -3.548000000
H     5.089000000     1.358000000    -4.194000000
O    -5.177000000    -0.641000000    -0.428000000
H    -4.731000000    -0.795000000    -1.261000000
H    -5.321000000     0.305000000    -0.404000000
O    -5.134000000     2.110000000    -0.917000000
H    -5.525000000     2.603000000    -1.638000000
H    -4.268000000     2.501000000    -0.801000000
O    -7.524000000    -1.702000000    -1.279000000
H    -8.168000000    -1.105000000    -0.897000000
H    -6.680000000    -1.378000000    -0.964000000
O     0.878000000     4.270000000    -4.572000000
H     1.070000000     3.821000000    -3.749000000
H     1.222000000     3.687000000    -5.249000000
O     4.539000000    -0.130000000     2.123000000
H     5.359000000     0.147000000     1.715000000
H     4.035000000     0.678000000     2.221000000
O    -5.129000000     2.562000000     3.009000000
H    -5.043000000     1.679000000     2.649000000
H    -5.327000000     2.425000000     3.935000000
O    -4.939000000    -0.257000000     2.272000000
H    -4.328000000    -0.977000000     2.428000000
H    -5.208000000    -0.365000000     1.359000000
O     4.439000000     4.438000000    -3.389000000
H     4.844000000     3.987000000    -2.649000000
H     3.554000000     4.645000000    -3.089000000
O    -4.215000000    -5.263000000     1.484000000
H    -3.516000000    -5.704000000     1.967000000
H    -4.697000000    -5.973000000     1.059000000
O    -0.411000000    -2.369000000    -2.389000000
H    -0.363000000    -3.172000000    -1.871000000
H     0.461000000    -1.981000000    -2.312000000
O    -4.889000000    -3.271000000     5.489000000
H    -4.986000000    -4.099000000     5.019000000
H    -4.403000000    -2.709000000     4.885000000
O    -2.466000000    -6.749000000     3.041000000
H    -1.704000000    -6.905000000     2.484000000
H    -2.107000000    -6.689000000     3.927000000
O    -3.050000000     3.852000000     0.159000000
H    -2.675000000     4.371000000    -0.553000000
H    -2.936000000     4.398000000     0.937000000
O     4.863000000    -4.668000000    -0.065000000
H     4.118000000    -4.074000000    -0.152000000
H     4.555000000    -5.495000000    -0.436000000
