158
-3073.98063
C    -1.059000000     0.600000000    -0.920000000
H    -1.871000000     1.066000000    -1.472000000
C    -1.214000000    -0.543000000    -0.154000000
H    -2.247000000    -0.871000000    -0.065000000
C    -0.141000000    -1.089000000     0.619000000
H    -0.280000000    -1.980000000     1.166000000
C     1.072000000    -0.453000000     0.606000000
H     1.813000000    -0.728000000     1.353000000
C     1.304000000     0.674000000    -0.178000000
H     2.131000000     1.347000000     0.031000000
C     0.254000000     1.210000000    -0.975000000
C     0.462000000     2.478000000    -1.905000000
O    -0.097000000     2.471000000    -3.005000000
O     1.315000000     3.273000000    -1.558000000
O    -0.760000000     1.087000000     2.902000000
H    -0.651000000     0.796000000     1.997000000
H    -1.599000000     1.549000000     2.906000000
O    -0.661000000    -1.166000000     4.594000000
H    -0.700000000    -0.406000000     4.014000000
H    -0.767000000    -1.918000000     4.011000000
O    -1.452000000     5.147000000    -1.765000000
H    -0.841000000     4.449000000    -2.001000000
H    -2.115000000     5.128000000    -2.456000000
O    -3.052000000     2.167000000     2.374000000
H    -3.630000000     2.236000000     3.134000000
H    -2.997000000     3.059000000     2.033000000
O     1.084000000    -4.039000000     2.142000000
H     0.290000000    -3.759000000     2.599000000
H     1.725000000    -3.356000000     2.337000000
O    -2.659000000    -1.178000000    -4.016000000
H    -2.327000000    -0.281000000    -3.991000000
H    -2.333000000    -1.577000000    -3.208000000
O     1.341000000     2.181000000    -5.037000000
H     0.802000000     1.537000000    -5.496000000
H     0.928000000     2.271000000    -4.178000000
O    -3.957000000     2.723000000    -2.594000000
H    -4.019000000     2.287000000    -1.744000000
H    -4.710000000     3.314000000    -2.614000000
O    -2.540000000    -3.482000000    -2.217000000
H    -2.827000000    -3.331000000    -1.317000000
H    -1.593000000    -3.346000000    -2.194000000
O     1.895000000    -3.420000000     6.068000000
H     1.305000000    -3.981000000     5.565000000
H     1.314000000    -2.834000000     6.552000000
O     0.434000000     0.147000000    -6.638000000
H     1.014000000    -0.003000000    -7.385000000
H     0.230000000    -0.730000000    -6.314000000
O    -2.143000000     1.469000000    -4.153000000
H    -2.712000000     1.851000000    -3.485000000
H    -1.273000000     1.814000000    -3.953000000
O    -0.652000000    -4.957000000     5.413000000
H    -1.110000000    -5.308000000     6.176000000
H    -1.302000000    -4.407000000     4.975000000
O     2.779000000    -1.830000000    -2.593000000
H     3.224000000    -2.016000000    -1.766000000
H     2.389000000    -2.666000000    -2.848000000
O     3.467000000     3.994000000    -5.356000000
H     4.303000000     3.534000000    -5.429000000
H     2.807000000     3.310000000    -5.468000000
O     1.544000000     3.753000000     2.139000000
H     2.073000000     2.996000000     1.889000000
H     1.775000000     3.916000000     3.053000000
O     2.983000000    -3.951000000    -0.040000000
H     2.341000000    -4.264000000     0.597000000
H     3.518000000    -3.324000000     0.446000000
O     3.583000000     1.837000000    -2.001000000
H     3.532000000     1.623000000    -2.932000000
H     2.734000000     2.231000000    -1.799000000
O    -5.883000000    -0.228000000     2.703000000
H    -6.273000000    -1.049000000     3.003000000
H    -5.913000000    -0.283000000     1.748000000
O     0.628000000    -0.927000000     7.025000000
H    -0.157000000    -0.998000000     7.567000000
H     0.296000000    -0.766000000     6.142000000
O    -3.221000000    -1.731000000     5.824000000
H    -3.536000000    -0.901000000     6.182000000
H    -2.595000000    -1.477000000     5.146000000
O     2.765000000    -1.734000000     3.703000000
H     2.804000000    -1.878000000     4.648000000
H     3.448000000    -1.086000000     3.531000000
O    -1.471000000    -3.264000000     3.135000000
H    -2.137000000    -2.609000000     2.928000000
H    -1.599000000    -3.951000000     2.482000000
O    -2.794000000     5.219000000    -4.018000000
H    -2.178000000     5.259000000    -4.749000000
H    -3.145000000     4.329000000    -4.048000000
O     4.333000000     4.088000000    -0.448000000
H     4.040000000     3.571000000    -1.199000000
H     3.611000000     4.694000000    -0.279000000
O     0.912000000     5.632000000     0.320000000
H     1.072000000     5.098000000     1.097000000
H     0.867000000     5.001000000    -0.399000000
O    -3.918000000    -5.683000000     2.868000000
H    -3.046000000    -5.840000000     2.504000000
H    -3.768000000    -5.561000000     3.805000000
O     1.673000000    -4.266000000    -2.448000000
H     1.393000000    -5.177000000    -2.357000000
H     2.202000000    -4.100000000    -1.667000000
O    -5.115000000    -1.269000000    -2.805000000
H    -5.733000000    -0.625000000    -3.153000000
H    -4.468000000    -1.380000000    -3.501000000
O     4.990000000    -3.223000000     2.043000000
H     5.849000000    -3.631000000     2.151000000
H     4.509000000    -3.465000000     2.835000000
O     4.856000000    -1.418000000    -0.126000000
H     5.042000000    -0.537000000     0.198000000
H     5.412000000    -1.990000000     0.402000000
O     3.352000000     1.786000000     2.470000000
H     4.115000000     1.842000000     3.045000000
H     2.671000000     1.388000000     3.013000000
O     1.498000000    -6.852000000     4.132000000
H     1.862000000    -6.097000000     3.669000000
H     0.857000000    -6.476000000     4.735000000
O     2.532000000     5.319000000    -2.922000000
H     2.070000000     4.645000000    -2.423000000
H     2.738000000     4.899000000    -3.757000000
O     4.431000000     0.107000000    -4.067000000
H     4.380000000    -0.620000000    -4.687000000
H     3.939000000    -0.195000000    -3.303000000
O    -5.396000000    -1.775000000    -0.142000000
H    -5.417000000    -1.673000000    -1.094000000
H    -4.654000000    -2.358000000     0.019000000
O    -4.507000000     2.103000000    -0.014000000
H    -4.581000000     1.670000000     0.836000000
H    -3.881000000     2.813000000     0.132000000
O    -0.534000000     4.554000000    -5.613000000
H     0.233000000     4.015000000    -5.422000000
H    -0.687000000     4.431000000    -6.549000000
O     1.469000000     0.921000000     4.458000000
H     1.584000000    -0.021000000     4.331000000
H     0.534000000     1.070000000     4.317000000
O    -2.381000000     1.702000000    -7.097000000
H    -2.260000000     1.530000000    -6.163000000
H    -1.638000000     1.270000000    -7.518000000
O     5.140000000     1.134000000     0.149000000
H     4.860000000     1.548000000    -0.667000000
H     4.542000000     1.480000000     0.811000000
O    -3.252000000    -1.403000000     2.592000000
H    -3.129000000    -0.533000000     2.212000000
H    -4.125000000    -1.669000000     2.304000000
O     3.276000000     7.944000000    -1.840000000
H     4.136000000     7.607000000    -1.588000000
H     2.846000000     7.204000000    -2.270000000
O    -3.790000000    -3.858000000     0.621000000
H    -3.667000000    -4.231000000     1.494000000
H    -4.459000000    -4.410000000     0.217000000
O    -0.253000000    -1.982000000    -2.506000000
H     0.018000000    -1.245000000    -1.959000000
H     0.298000000    -2.710000000    -2.218000000
O    -1.549000000    -5.540000000     1.506000000
H    -0.602000000    -5.640000000     1.409000000
H    -1.900000000    -5.724000000     0.635000000
O    -2.893000000     4.259000000     0.678000000
H    -2.267000000     4.584000000     0.031000000
H    -3.440000000     5.017000000     0.883000000
O     0.009000000     7.546000000    -2.304000000
H    -0.408000000     6.741000000    -1.996000000
H     0.503000000     7.864000000    -1.548000000
