158
-3054.24268
C    -0.764000000     1.186000000    -0.636000000
H    -1.363000000     2.027000000    -0.978000000
C    -1.184000000    -0.117000000    -0.401000000
H    -2.191000000    -0.446000000    -0.642000000
C    -0.419000000    -1.128000000     0.142000000
H    -0.856000000    -2.097000000     0.505000000
C     0.808000000    -0.802000000     0.598000000
H     1.338000000    -1.596000000     1.117000000
C     1.328000000     0.474000000     0.420000000
H     2.340000000     0.663000000     0.770000000
C     0.554000000     1.458000000    -0.284000000
C     1.148000000     2.816000000    -0.565000000
O     0.661000000     3.520000000    -1.424000000
O     2.108000000     3.234000000     0.008000000
O    -0.843000000     0.921000000     2.665000000
H    -0.400000000     0.361000000     2.027000000
H    -1.775000000     0.797000000     2.486000000
O    -3.285000000    -1.969000000     6.175000000
H    -2.679000000    -2.298000000     6.838000000
H    -2.910000000    -2.258000000     5.343000000
O     0.751000000     6.130000000    -2.041000000
H     1.046000000     5.281000000    -1.711000000
H     1.559000000     6.608000000    -2.229000000
O    -1.976000000     3.912000000     2.222000000
H    -2.138000000     3.929000000     3.165000000
H    -1.927000000     2.981000000     2.004000000
O    -1.516000000    -4.562000000     5.306000000
H    -2.384000000    -4.338000000     4.971000000
H    -1.612000000    -5.452000000     5.644000000
O    -2.267000000    -0.176000000    -3.898000000
H    -1.819000000    -0.059000000    -3.061000000
H    -2.158000000     0.663000000    -4.347000000
O    -0.429000000     6.241000000    -4.657000000
H     0.279000000     6.065000000    -5.277000000
H    -0.068000000     5.994000000    -3.805000000
O     0.828000000     7.806000000     2.028000000
H     0.379000000     7.041000000     1.668000000
H     1.436000000     7.445000000     2.673000000
O     2.694000000     3.212000000    -3.523000000
H     2.961000000     2.351000000    -3.844000000
H     2.067000000     3.024000000    -2.824000000
O    -3.452000000    -2.628000000    -4.303000000
H    -2.946000000    -1.905000000    -3.934000000
H    -2.914000000    -2.953000000    -5.025000000
O    -3.378000000     3.596000000    -2.011000000
H    -3.396000000     4.435000000    -1.552000000
H    -3.784000000     2.980000000    -1.402000000
O     0.434000000     1.052000000    -4.109000000
H    -0.169000000     1.731000000    -3.805000000
H     0.430000000     1.138000000    -5.063000000
O    -1.157000000     3.236000000    -3.448000000
H    -2.035000000     3.492000000    -3.164000000
H    -0.581000000     3.536000000    -2.745000000
O     2.590000000    -6.508000000    -1.901000000
H     2.120000000    -6.390000000    -1.076000000
H     2.703000000    -5.621000000    -2.242000000
O     4.095000000     5.433000000    -2.895000000
H     3.724000000     5.574000000    -2.024000000
H     3.771000000     4.571000000    -3.156000000
O     4.459000000     2.236000000    -0.187000000
H     4.981000000     2.682000000    -0.853000000
H     3.635000000     2.723000000    -0.162000000
O     1.020000000     4.912000000     5.055000000
H     0.532000000     4.214000000     5.490000000
H     1.438000000     4.483000000     4.308000000
O     0.410000000    -1.832000000     3.687000000
H     1.313000000    -1.561000000     3.522000000
H     0.397000000    -2.765000000     3.474000000
O     6.202000000     3.395000000    -1.854000000
H     6.238000000     4.342000000    -1.989000000
H     6.195000000     3.027000000    -2.737000000
O    -2.202000000    -1.917000000     3.609000000
H    -2.293000000    -1.082000000     3.149000000
H    -1.271000000    -1.973000000     3.822000000
O     5.484000000     4.602000000     1.248000000
H     5.817000000     3.947000000     0.635000000
H     5.478000000     4.157000000     2.095000000
O     5.662000000     2.833000000     3.492000000
H     4.828000000     2.388000000     3.645000000
H     6.318000000     2.139000000     3.557000000
O    -3.178000000    -3.148000000    -1.002000000
H    -3.594000000    -3.039000000    -1.857000000
H    -3.541000000    -2.442000000    -0.467000000
O     1.344000000     3.475000000     2.845000000
H     0.504000000     3.020000000     2.776000000
H     1.639000000     3.570000000     1.940000000
O     0.909000000    -6.391000000     0.231000000
H     0.171000000    -5.871000000    -0.088000000
H     0.513000000    -7.031000000     0.823000000
O    -2.442000000    -5.688000000    -3.654000000
H    -1.858000000    -5.498000000    -2.919000000
H    -2.637000000    -4.830000000    -4.032000000
O    -5.870000000     3.119000000    -0.545000000
H    -5.264000000     3.785000000    -0.220000000
H    -6.307000000     3.535000000    -1.288000000
O    -4.495000000     0.789000000    -1.757000000
H    -5.016000000     1.538000000    -1.466000000
H    -4.654000000     0.739000000    -2.700000000
O    -1.623000000    -5.316000000    -0.207000000
H    -2.361000000    -5.888000000     0.002000000
H    -2.019000000    -4.562000000    -0.644000000
O     4.267000000    -2.212000000     0.715000000
H     4.166000000    -1.997000000     1.642000000
H     3.681000000    -2.956000000     0.576000000
O    -4.170000000    -6.443000000     0.313000000
H    -5.107000000    -6.266000000     0.229000000
H    -4.018000000    -7.199000000    -0.254000000
O     3.633000000    -3.625000000    -2.664000000
H     3.949000000    -3.468000000    -3.554000000
H     2.910000000    -3.008000000    -2.554000000
O     3.224000000     1.379000000     4.081000000
H     3.331000000     1.594000000     5.007000000
H     2.302000000     1.560000000     3.898000000
O     2.136000000    -1.107000000    -3.005000000
H     1.474000000    -0.421000000    -3.088000000
H     2.813000000    -0.722000000    -2.450000000
O     0.714000000    -4.770000000     3.799000000
H    -0.105000000    -4.897000000     4.278000000
H     0.759000000    -5.514000000     3.199000000
O     3.397000000     5.519000000    -0.106000000
H     4.247000000     5.247000000     0.241000000
H     2.769000000     4.925000000     0.305000000
O     4.404000000    -0.311000000    -1.562000000
H     4.346000000    -0.970000000    -0.870000000
H     4.468000000     0.522000000    -1.094000000
O    -4.859000000    -0.779000000     0.468000000
H    -5.723000000    -1.178000000     0.572000000
H    -4.943000000    -0.223000000    -0.307000000
O     0.299000000     0.110000000     5.655000000
H     0.369000000    -0.422000000     4.863000000
H    -0.019000000     0.959000000     5.346000000
O     1.855000000     5.343000000    -5.727000000
H     2.249000000     4.740000000    -5.097000000
H     1.426000000     4.775000000    -6.367000000
O     3.212000000    -1.292000000     3.086000000
H     3.517000000    -1.549000000     3.956000000
H     3.268000000    -0.337000000     3.084000000
O    -3.405000000     0.483000000     2.260000000
H    -3.856000000     0.104000000     1.505000000
H    -4.101000000     0.652000000     2.894000000
O    -4.895000000    -3.751000000     1.874000000
H    -4.324000000    -2.984000000     1.906000000
H    -4.545000000    -4.282000000     1.159000000
O     3.443000000    -4.883000000     0.709000000
H     3.560000000    -5.260000000     1.580000000
H     2.552000000    -5.130000000     0.458000000
O    -0.463000000    -7.468000000     2.584000000
H    -1.363000000    -7.157000000     2.684000000
H    -0.307000000    -8.005000000     3.361000000
O    -4.111000000     4.964000000     0.532000000
H    -3.478000000     4.831000000     1.237000000
H    -4.616000000     5.730000000     0.804000000
O     6.838000000     0.984000000     1.195000000
H     6.744000000     0.273000000     1.829000000
H     5.956000000     1.112000000     0.846000000
O    -0.633000000     5.954000000     0.740000000
H    -0.357000000     5.691000000    -0.138000000
H    -1.023000000     5.165000000     1.116000000
