158
-3008.33064
C    -0.797000000     0.799000000    -1.004000000
H    -1.465000000     1.341000000    -1.669000000
C    -1.284000000    -0.249000000    -0.134000000
H    -2.306000000    -0.582000000    -0.296000000
C    -0.502000000    -0.836000000     0.754000000
H    -0.928000000    -1.558000000     1.429000000
C     0.815000000    -0.509000000     0.805000000
H     1.506000000    -1.082000000     1.417000000
C     1.399000000     0.480000000     0.005000000
H     2.417000000     0.827000000     0.161000000
C     0.586000000     1.112000000    -0.946000000
C     1.160000000     2.229000000    -1.846000000
O     0.446000000     2.957000000    -2.527000000
O     2.400000000     2.326000000    -1.929000000
O    -3.132000000     1.000000000     3.172000000
H    -3.586000000     0.982000000     2.329000000
H    -2.443000000     1.655000000     3.058000000
O    -5.887000000    -3.252000000     3.884000000
H    -5.893000000    -4.101000000     3.441000000
H    -5.428000000    -2.669000000     3.279000000
O     0.570000000     5.787000000    -3.576000000
H     0.879000000     4.933000000    -3.878000000
H     0.381000000     5.658000000    -2.646000000
O    -1.824000000     3.465000000     0.705000000
H    -1.532000000     3.611000000     1.605000000
H    -1.881000000     2.513000000     0.624000000
O    -2.059000000     6.761000000    -2.960000000
H    -1.556000000     6.357000000    -3.668000000
H    -1.576000000     6.537000000    -2.165000000
O    -1.948000000    -4.290000000     1.532000000
H    -2.671000000    -4.588000000     2.084000000
H    -1.683000000    -5.068000000     1.042000000
O     0.473000000     7.267000000    -0.140000000
H     0.421000000     6.346000000    -0.395000000
H     0.447000000     7.252000000     0.817000000
O    -3.670000000    -5.922000000     2.536000000
H    -3.613000000    -6.878000000     2.553000000
H    -4.435000000    -5.738000000     1.991000000
O     3.018000000     3.138000000    -4.277000000
H     2.384000000     2.757000000    -4.885000000
H     2.673000000     2.930000000    -3.409000000
O    -1.653000000     0.441000000    -4.558000000
H    -2.462000000     0.952000000    -4.561000000
H    -1.512000000     0.208000000    -5.476000000
O    -3.800000000     2.046000000    -3.465000000
H    -4.063000000     2.806000000    -2.945000000
H    -4.374000000     2.069000000    -4.230000000
O     0.687000000     2.877000000    -5.880000000
H    -0.036000000     3.360000000    -5.481000000
H     0.690000000     3.163000000    -6.794000000
O    -1.689000000     3.653000000    -4.376000000
H    -2.549000000     3.330000000    -4.107000000
H    -1.068000000     3.051000000    -3.966000000
O     4.919000000     4.338000000    -5.710000000
H     4.394000000     3.851000000    -5.075000000
H     4.408000000     4.306000000    -6.519000000
O     2.874000000    -5.089000000     2.297000000
H     1.939000000    -5.133000000     2.499000000
H     3.307000000    -5.155000000     3.148000000
O     5.505000000     2.681000000    -1.772000000
H     5.806000000     3.556000000    -2.018000000
H     4.698000000     2.556000000    -2.271000000
O    -6.108000000    -2.770000000    -0.541000000
H    -6.956000000    -2.929000000    -0.126000000
H    -5.934000000    -3.567000000    -1.042000000
O    -2.909000000    -1.621000000     3.904000000
H    -2.929000000    -0.713000000     3.605000000
H    -2.868000000    -2.138000000     3.099000000
O     1.402000000     3.967000000     2.317000000
H     1.759000000     3.154000000     2.675000000
H     1.664000000     3.960000000     1.397000000
O     1.341000000    -2.250000000     4.596000000
H     2.272000000    -2.414000000     4.741000000
H     1.049000000    -2.986000000     4.058000000
O    -4.332000000    -2.677000000     1.549000000
H    -4.984000000    -3.114000000     1.002000000
H    -3.498000000    -2.851000000     1.112000000
O    -1.244000000     5.598000000    -6.341000000
H    -1.566000000     5.220000000    -5.523000000
H    -1.416000000     4.925000000    -7.000000000
O     4.650000000     2.803000000     2.439000000
H     4.395000000     2.239000000     3.170000000
H     5.273000000     2.278000000     1.937000000
O    -2.944000000    -1.943000000    -2.788000000
H    -2.252000000    -1.347000000    -3.075000000
H    -3.652000000    -1.366000000    -2.500000000
O     3.195000000     3.761000000     0.142000000
H     2.985000000     3.314000000    -0.679000000
H     3.812000000     3.176000000     0.582000000
O    -0.590000000     2.166000000     5.576000000
H    -0.564000000     1.691000000     6.407000000
H    -0.441000000     1.493000000     4.911000000
O    -4.403000000    -5.908000000    -0.419000000
H    -3.633000000    -5.433000000    -0.731000000
H    -5.044000000    -5.815000000    -1.123000000
O     2.143000000     0.412000000    -6.203000000
H     1.689000000    -0.206000000    -5.630000000
H     1.570000000     1.179000000    -6.229000000
O     0.180000000    -4.664000000    -0.939000000
H    -0.294000000    -4.689000000    -1.770000000
H     0.017000000    -5.521000000    -0.545000000
O    -2.563000000    -4.530000000    -2.081000000
H    -2.585000000    -3.695000000    -1.612000000
H    -3.039000000    -4.361000000    -2.893000000
O     4.001000000    -1.167000000     0.005000000
H     3.731000000    -1.005000000     0.909000000
H     3.702000000    -2.057000000    -0.179000000
O     5.903000000    -0.306000000    -2.090000000
H     5.354000000    -0.908000000    -1.587000000
H     5.364000000     0.478000000    -2.194000000
O     2.468000000     1.884000000     4.154000000
H     2.659000000     1.964000000     5.089000000
H     1.736000000     1.268000000     4.111000000
O     0.830000000    -2.148000000    -1.780000000
H     0.582000000    -2.996000000    -1.411000000
H     0.422000000    -1.506000000    -1.199000000
O     0.212000000    -4.523000000     3.349000000
H    -0.058000000    -5.236000000     3.928000000
H    -0.593000000    -4.258000000     2.905000000
O     3.412000000     6.495000000    -0.740000000
H     3.283000000     5.637000000    -0.336000000
H     2.809000000     7.073000000    -0.273000000
O     3.228000000     0.055000000    -3.165000000
H     2.522000000    -0.587000000    -3.238000000
H     2.954000000     0.633000000    -2.454000000
O    -5.202000000    -0.610000000    -1.712000000
H    -5.762000000    -1.273000000    -1.308000000
H    -5.717000000    -0.277000000    -2.447000000
O    -0.332000000    -1.954000000     6.732000000
H     0.228000000    -1.954000000     5.956000000
H    -0.154000000    -1.114000000     7.156000000
O     0.135000000     0.320000000     3.759000000
H     0.292000000    -0.567000000     4.083000000
H    -0.091000000     0.202000000     2.837000000
O     4.128000000    -0.859000000     2.804000000
H     5.044000000    -1.136000000     2.781000000
H     3.910000000    -0.832000000     3.735000000
O    -4.265000000     0.779000000     0.570000000
H    -4.287000000     0.177000000    -0.174000000
H    -5.046000000     1.322000000     0.461000000
O     2.942000000    -3.883000000    -0.446000000
H     3.244000000    -4.422000000     0.284000000
H     2.016000000    -4.106000000    -0.542000000
O     0.683000000    -1.214000000    -4.409000000
H     0.653000000    -1.497000000    -3.495000000
H    -0.073000000    -0.634000000    -4.505000000
O    -0.950000000    -6.846000000     0.009000000
H    -1.186000000    -7.495000000    -0.655000000
H    -1.014000000    -7.319000000     0.839000000
O    -4.524000000     3.958000000    -1.922000000
H    -4.259000000     4.137000000    -1.020000000
H    -4.464000000     4.806000000    -2.363000000
O     6.397000000     1.561000000     0.537000000
H     5.890000000     0.749000000     0.558000000
H     6.316000000     1.869000000    -0.366000000
O    -0.669000000     5.032000000    -1.297000000
H    -0.313000000     4.271000000    -1.754000000
H    -1.278000000     4.663000000    -0.657000000
