158
-3054.84621
C     1.369000000     0.671000000    -0.045000000
H     2.372000000     1.076000000    -0.154000000
C     0.843000000    -0.195000000    -1.032000000
H     1.440000000    -0.492000000    -1.890000000
C    -0.510000000    -0.637000000    -0.906000000
H    -1.025000000    -1.342000000    -1.680000000
C    -1.286000000    -0.302000000     0.190000000
H    -2.292000000    -0.699000000     0.292000000
C    -0.782000000     0.472000000     1.172000000
H    -1.453000000     0.721000000     1.990000000
C     0.598000000     0.923000000     1.109000000
C     1.226000000     1.780000000     2.200000000
O     1.895000000     2.758000000     1.869000000
O     1.049000000     1.398000000     3.359000000
O     1.350000000    -4.255000000    -0.978000000
H     0.975000000    -4.984000000    -0.484000000
H     1.661000000    -3.646000000    -0.308000000
O     3.354000000     2.772000000    -1.989000000
H     2.604000000     3.324000000    -2.211000000
H     4.060000000     3.090000000    -2.552000000
O    -0.100000000     6.427000000     2.258000000
H     0.009000000     5.799000000     1.544000000
H    -0.299000000     5.887000000     3.023000000
O    -0.745000000     4.918000000     4.475000000
H    -1.070000000     4.022000000     4.554000000
H    -1.462000000     5.463000000     4.800000000
O    -2.354000000    -3.808000000    -1.372000000
H    -1.869000000    -3.686000000    -0.556000000
H    -3.230000000    -3.473000000    -1.183000000
O     0.507000000     4.572000000     0.590000000
H     0.865000000     3.755000000     0.936000000
H     1.118000000     4.827000000    -0.101000000
O     5.117000000     5.528000000     0.285000000
H     4.979000000     4.630000000     0.588000000
H     4.296000000     5.764000000    -0.146000000
O    -2.072000000    -5.783000000    -3.219000000
H    -2.779000000    -5.534000000    -3.813000000
H    -2.035000000    -5.073000000    -2.578000000
O     3.677000000     4.844000000     2.894000000
H     3.655000000     5.691000000     2.449000000
H     2.955000000     4.351000000     2.506000000
O     0.617000000    -0.942000000    -7.578000000
H     0.859000000    -1.764000000    -8.004000000
H     1.203000000    -0.882000000    -6.823000000
O     0.236000000     1.199000000    -3.894000000
H    -0.440000000     1.855000000    -3.725000000
H    -0.183000000     0.364000000    -3.683000000
O     4.354000000     2.763000000     0.340000000
H     3.919000000     3.101000000    -0.443000000
H     3.677000000     2.779000000     1.016000000
O     1.426000000    -3.004000000    -3.339000000
H     2.301000000    -3.376000000    -3.450000000
H     1.213000000    -3.162000000    -2.419000000
O     0.788000000     3.802000000    -2.176000000
H    -0.088000000     4.173000000    -2.071000000
H     0.637000000     2.939000000    -2.563000000
O     2.274000000     5.756000000     5.162000000
H     1.961000000     4.992000000     4.677000000
H     1.477000000     6.179000000     5.483000000
O    -1.329000000     1.655000000    -6.530000000
H    -1.759000000     1.032000000    -7.115000000
H    -1.187000000     1.164000000    -5.720000000
O     3.011000000     1.011000000     6.955000000
H     3.630000000     0.370000000     7.307000000
H     3.564000000     1.685000000     6.559000000
O    -1.741000000    -3.249000000     2.205000000
H    -1.725000000    -4.176000000     1.968000000
H    -0.819000000    -3.006000000     2.285000000
O    -2.392000000    -0.893000000    -7.643000000
H    -1.557000000    -0.889000000    -7.175000000
H    -2.942000000    -1.498000000    -7.146000000
O    -3.706000000     2.816000000     3.303000000
H    -3.629000000     3.711000000     2.972000000
H    -3.087000000     2.776000000     4.032000000
O    -1.215000000    -3.031000000    -4.186000000
H    -0.307000000    -3.106000000    -3.893000000
H    -1.473000000    -2.142000000    -3.944000000
O    -1.901000000    -7.224000000    -0.839000000
H    -1.607000000    -6.699000000    -1.584000000
H    -1.411000000    -6.878000000    -0.094000000
O    -2.068000000     2.717000000    -3.197000000
H    -2.072000000     3.463000000    -2.598000000
H    -2.561000000     2.037000000    -2.737000000
O    -1.680000000    -0.351000000     5.863000000
H    -2.147000000     0.481000000     5.934000000
H    -0.799000000    -0.159000000     6.182000000
O     0.874000000    -5.787000000    -4.077000000
H     1.571000000    -5.396000000    -3.551000000
H     0.075000000    -5.628000000    -3.573000000
O    -5.690000000    -0.697000000     0.616000000
H    -6.478000000    -1.048000000     1.031000000
H    -5.313000000    -0.113000000     1.274000000
O    -3.132000000     2.231000000     0.105000000
H    -3.472000000     3.125000000     0.074000000
H    -3.404000000     1.902000000     0.962000000
O    -4.859000000    -3.130000000    -0.436000000
H    -5.125000000    -2.248000000    -0.176000000
H    -5.210000000    -3.698000000     0.249000000
O    -5.253000000     0.691000000     2.945000000
H    -4.923000000     1.536000000     3.249000000
H    -4.603000000     0.057000000     3.249000000
O     3.062000000    -2.567000000     1.123000000
H     3.371000000    -1.690000000     0.894000000
H     2.373000000    -2.417000000     1.770000000
O    -3.458000000    -2.927000000    -5.886000000
H    -3.986000000    -2.581000000    -5.166000000
H    -2.631000000    -3.181000000    -5.476000000
O     2.567000000     6.127000000    -0.887000000
H     2.726000000     6.368000000    -1.800000000
H     2.112000000     6.883000000    -0.516000000
O     3.877000000     2.551000000     4.810000000
H     4.118000000     3.250000000     4.202000000
H     3.121000000     2.129000000     4.401000000
O     0.357000000     1.880000000     6.016000000
H     0.572000000     1.692000000     5.103000000
H     1.144000000     1.637000000     6.503000000
O    -5.560000000    -4.273000000    -2.880000000
H    -5.268000000    -3.809000000    -2.095000000
H    -5.625000000    -3.593000000    -3.550000000
O    -2.097000000     2.448000000     5.695000000
H    -1.181000000     2.183000000     5.780000000
H    -2.362000000     2.683000000     6.584000000
O    -3.145000000    -1.398000000     3.512000000
H    -2.413000000    -1.162000000     4.082000000
H    -2.764000000    -1.993000000     2.866000000
O    -5.988000000    -1.700000000    -4.163000000
H    -5.572000000    -1.159000000    -3.492000000
H    -6.694000000    -1.154000000    -4.507000000
O     2.497000000    -0.699000000     4.272000000
H     2.001000000     0.104000000     4.114000000
H     2.557000000    -0.760000000     5.226000000
O    -3.193000000     0.374000000    -2.074000000
H    -3.088000000     0.888000000    -1.273000000
H    -4.131000000     0.189000000    -2.119000000
O    -2.429000000    -0.352000000    -4.481000000
H    -2.547000000    -0.023000000    -3.590000000
H    -3.292000000    -0.259000000    -4.886000000
O     0.152000000     4.571000000     7.079000000
H    -0.159000000     4.959000000     6.261000000
H     0.287000000     3.647000000     6.869000000
O     4.253000000    -0.030000000    -2.264000000
H     4.505000000    -0.111000000    -1.344000000
H     3.713000000     0.759000000    -2.295000000
O     1.952000000    -0.851000000    -5.034000000
H     1.723000000    -0.106000000    -4.479000000
H     1.717000000    -1.619000000    -4.514000000
O     0.986000000    -2.755000000     3.057000000
H     1.283000000    -1.916000000     3.409000000
H     1.366000000    -3.409000000     3.643000000
O     0.411000000    -6.264000000     0.543000000
H     1.215000000    -6.191000000     1.059000000
H    -0.292000000    -6.252000000     1.193000000
O     4.729000000    -0.102000000     0.314000000
H     5.397000000    -0.187000000     0.995000000
H     4.575000000     0.840000000     0.246000000
O     5.348000000    -1.231000000    -4.316000000
H     4.720000000    -1.277000000    -5.037000000
H     4.829000000    -0.948000000    -3.563000000
