158
-3017.99657
C     0.648000000    -0.830000000     1.062000000
H     1.010000000    -1.330000000     1.957000000
C    -0.583000000    -0.295000000     1.171000000
H    -1.144000000    -0.387000000     2.098000000
C    -1.102000000     0.369000000     0.060000000
H    -2.071000000     0.801000000     0.267000000
C    -0.454000000     0.453000000    -1.121000000
H    -0.856000000     1.050000000    -1.936000000
C     0.848000000    -0.033000000    -1.185000000
H     1.374000000     0.028000000    -2.134000000
C     1.398000000    -0.694000000    -0.098000000
C     2.829000000    -1.068000000    -0.255000000
O     3.356000000    -1.053000000    -1.341000000
O     3.544000000    -1.195000000     0.763000000
O     4.183000000     1.380000000    -2.144000000
H     4.121000000     1.330000000    -3.098000000
H     3.981000000     0.493000000    -1.844000000
O    -3.705000000     4.535000000     1.698000000
H    -4.240000000     3.779000000     1.942000000
H    -3.419000000     4.348000000     0.804000000
O     3.398000000    -2.977000000    -3.344000000
H     3.378000000    -2.254000000    -2.718000000
H     2.659000000    -2.810000000    -3.928000000
O     2.758000000     2.245000000     5.582000000
H     1.981000000     2.743000000     5.329000000
H     2.572000000     1.350000000     5.298000000
O     4.987000000    -0.122000000     4.466000000
H     4.370000000    -0.222000000     5.192000000
H     5.816000000     0.105000000     4.887000000
O    -2.994000000     3.297000000    -4.140000000
H    -2.325000000     3.352000000    -4.822000000
H    -3.295000000     2.389000000    -4.171000000
O    -3.732000000     4.110000000     4.598000000
H    -3.096000000     4.505000000     5.195000000
H    -3.334000000     4.199000000     3.731000000
O    -4.085000000    -2.359000000    -0.852000000
H    -3.507000000    -2.218000000    -1.602000000
H    -3.737000000    -3.144000000    -0.427000000
O    -5.402000000     2.377000000     2.702000000
H    -5.470000000     1.465000000     2.418000000
H    -4.810000000     2.349000000     3.454000000
O    -2.507000000     0.340000000    -3.691000000
H    -1.597000000     0.456000000    -3.961000000
H    -2.507000000    -0.476000000    -3.191000000
O     5.922000000    -2.982000000     3.984000000
H     6.001000000    -2.095000000     4.337000000
H     5.134000000    -2.954000000     3.441000000
O     0.970000000    -1.825000000    -4.541000000
H     1.115000000    -2.040000000    -5.462000000
H     0.685000000    -0.911000000    -4.550000000
O     4.727000000     3.012000000     0.289000000
H     4.497000000     2.815000000    -0.619000000
H     4.656000000     2.172000000     0.742000000
O     0.276000000     2.962000000     0.409000000
H     0.134000000     2.050000000     0.155000000
H    -0.555000000     3.396000000     0.214000000
O     0.470000000     0.900000000    -4.970000000
H     0.895000000     1.731000000    -5.183000000
H     0.044000000     0.633000000    -5.784000000
O     3.970000000     1.777000000    -5.003000000
H     4.170000000     0.914000000    -5.368000000
H     3.366000000     2.169000000    -5.633000000
O     0.927000000     3.765000000    -2.376000000
H     1.336000000     2.900000000    -2.365000000
H     0.968000000     4.061000000    -1.466000000
O    -1.944000000     6.912000000    -1.062000000
H    -2.272000000     7.749000000    -0.733000000
H    -2.711000000     6.339000000    -1.067000000
O    -3.615000000    -1.355000000     3.779000000
H    -3.351000000    -2.271000000     3.686000000
H    -2.904000000    -0.951000000     4.277000000
O    -1.219000000    -3.479000000     0.148000000
H    -0.773000000    -3.194000000    -0.650000000
H    -1.540000000    -2.669000000     0.544000000
O     7.076000000    -2.710000000     1.357000000
H     6.710000000    -3.193000000     2.098000000
H     7.450000000    -1.920000000     1.748000000
O     6.050000000     3.055000000     3.099000000
H     5.630000000     2.465000000     2.473000000
H     5.648000000     2.838000000     3.940000000
O    -3.055000000    -4.209000000     3.632000000
H    -3.770000000    -4.521000000     3.078000000
H    -2.971000000    -4.875000000     4.313000000
O     7.206000000     0.902000000     0.302000000
H     6.745000000     0.173000000    -0.113000000
H     7.355000000     0.609000000     1.201000000
O     2.212000000    -2.726000000     4.557000000
H     2.660000000    -3.014000000     3.762000000
H     2.774000000    -3.028000000     5.271000000
O     3.768000000    -3.490000000     2.163000000
H     3.222000000    -4.067000000     1.628000000
H     3.665000000    -2.626000000     1.765000000
O    -2.177000000    -2.408000000    -2.901000000
H    -2.504000000    -2.388000000    -3.801000000
H    -1.333000000    -2.855000000    -2.963000000
O     0.265000000    -5.396000000     1.094000000
H     0.977000000    -5.450000000     0.456000000
H    -0.340000000    -4.754000000     0.723000000
O    -5.627000000    -0.296000000     2.277000000
H    -6.288000000    -0.441000000     2.954000000
H    -4.836000000    -0.711000000     2.621000000
O     4.595000000    -5.591000000    -3.493000000
H     4.931000000    -5.053000000    -4.210000000
H     4.013000000    -5.007000000    -3.007000000
O     0.548000000    -3.390000000    -2.174000000
H     1.161000000    -2.791000000    -2.601000000
H     0.637000000    -4.210000000    -2.660000000
O    -5.604000000    -0.244000000    -0.311000000
H    -5.087000000    -0.992000000    -0.611000000
H    -5.316000000    -0.101000000     0.591000000
O    -1.616000000     1.509000000     6.870000000
H    -1.334000000     1.290000000     5.981000000
H    -2.401000000     0.978000000     7.008000000
O    -3.966000000     1.981000000    -1.073000000
H    -4.679000000     1.453000000    -0.715000000
H    -3.771000000     1.577000000    -1.919000000
O     0.074000000     3.839000000    -5.036000000
H     0.388000000     4.739000000    -5.120000000
H     0.165000000     3.639000000    -4.105000000
O    -0.528000000    -3.238000000     3.832000000
H    -1.305000000    -3.797000000     3.856000000
H     0.185000000    -3.830000000     3.591000000
O     7.600000000     0.409000000    -2.605000000
H     7.083000000    -0.204000000    -2.083000000
H     8.507000000     0.234000000    -2.353000000
O    -1.125000000    -0.447000000     4.727000000
H    -0.417000000     0.000000000     4.264000000
H    -0.699000000    -1.192000000     5.153000000
O    -4.090000000     0.731000000    -5.720000000
H    -4.799000000     0.121000000    -5.515000000
H    -3.452000000     0.601000000    -5.019000000
O     5.965000000    -1.445000000    -0.855000000
H     6.057000000    -2.049000000    -0.118000000
H     5.040000000    -1.198000000    -0.848000000
O    -0.719000000     5.722000000     1.585000000
H    -0.746000000     6.374000000     0.885000000
H    -1.520000000     5.211000000     1.469000000
O     1.239000000     0.490000000     3.874000000
H     1.367000000    -0.440000000     4.063000000
H     1.519000000     0.590000000     2.964000000
O     4.068000000     0.900000000     2.186000000
H     4.340000000     0.439000000     2.979000000
H     3.691000000     0.218000000     1.630000000
O    -7.191000000     1.193000000    -2.590000000
H    -6.896000000     0.408000000    -2.128000000
H    -7.871000000     1.561000000    -2.025000000
O     6.357000000    -2.814000000    -3.347000000
H     6.083000000    -2.227000000    -2.642000000
H     5.580000000    -2.905000000    -3.899000000
O     0.395000000     3.395000000     4.825000000
H    -0.176000000     4.163000000     4.861000000
H     0.424000000     3.162000000     3.897000000
O    -1.876000000     3.762000000    -1.105000000
H    -1.611000000     3.782000000    -2.024000000
H    -2.796000000     3.499000000    -1.126000000
O    -0.704000000    -2.615000000     6.619000000
H    -0.058000000    -2.877000000     5.964000000
H    -1.475000000    -3.148000000     6.423000000
