158
-3071.89712
C     0.972000000     0.404000000    -1.019000000
H     1.765000000     0.675000000    -1.712000000
C     1.261000000    -0.146000000     0.233000000
H     2.287000000    -0.407000000     0.479000000
C     0.230000000    -0.524000000     1.065000000
H     0.482000000    -1.137000000     1.948000000
C    -1.050000000    -0.308000000     0.734000000
H    -1.871000000    -0.562000000     1.399000000
C    -1.382000000     0.250000000    -0.539000000
H    -2.432000000     0.326000000    -0.811000000
C    -0.371000000     0.728000000    -1.394000000
C    -0.611000000     1.481000000    -2.678000000
O    -1.528000000     1.272000000    -3.448000000
O     0.214000000     2.293000000    -2.953000000
O     0.766000000    -5.524000000     0.520000000
H     1.471000000    -4.997000000     0.895000000
H     0.226000000    -4.895000000     0.041000000
O    -3.294000000     4.845000000    -1.996000000
H    -2.941000000     4.283000000    -1.306000000
H    -3.469000000     5.679000000    -1.559000000
O    -4.867000000     2.971000000    -3.441000000
H    -5.714000000     3.389000000    -3.595000000
H    -4.404000000     3.576000000    -2.861000000
O    -4.246000000    -1.274000000     1.497000000
H    -3.414000000    -1.603000000     1.838000000
H    -4.509000000    -1.921000000     0.842000000
O    -3.334000000     1.110000000    -7.939000000
H    -3.439000000     0.386000000    -7.322000000
H    -3.169000000     1.874000000    -7.386000000
O     0.312000000    -6.150000000     4.608000000
H    -0.207000000    -6.866000000     4.974000000
H    -0.262000000    -5.748000000     3.955000000
O     1.832000000    -3.687000000     3.455000000
H     1.102000000    -4.160000000     3.854000000
H     1.737000000    -2.788000000     3.771000000
O     2.065000000     3.355000000    -1.549000000
H     2.846000000     3.358000000    -2.104000000
H     1.382000000     2.973000000    -2.099000000
O    -2.836000000     2.477000000    -5.727000000
H    -2.172000000     3.167000000    -5.739000000
H    -3.045000000     2.363000000    -4.800000000
O    -0.314000000    -3.828000000     6.285000000
H    -0.133000000    -4.720000000     5.989000000
H    -1.264000000    -3.802000000     6.402000000
O    -0.185000000     1.138000000     7.905000000
H    -0.118000000     0.213000000     8.146000000
H    -0.084000000     1.145000000     6.953000000
O    -1.981000000    -0.224000000     4.746000000
H    -1.971000000    -1.056000000     4.273000000
H    -2.618000000    -0.355000000     5.448000000
O    -2.836000000     2.983000000     0.523000000
H    -3.081000000     2.413000000     1.252000000
H    -1.886000000     3.074000000     0.598000000
O     5.346000000     0.644000000    -0.717000000
H     6.019000000     0.062000000    -0.366000000
H     4.535000000     0.139000000    -0.653000000
O     4.783000000    -4.224000000     2.731000000
H     3.894000000    -4.159000000     3.080000000
H     5.259000000    -4.737000000     3.384000000
O     3.792000000    -1.464000000    -1.813000000
H     3.573000000    -2.393000000    -1.884000000
H     3.286000000    -1.045000000    -2.510000000
O     4.525000000    -0.308000000     2.590000000
H     5.039000000    -0.780000000     3.245000000
H     4.404000000     0.565000000     2.965000000
O     1.542000000    -1.745000000     7.461000000
H     1.032000000    -2.252000000     6.830000000
H     2.453000000    -1.960000000     7.260000000
O    -0.154000000     2.829000000     1.034000000
H    -0.077000000     1.876000000     1.007000000
H     0.749000000     3.141000000     1.094000000
O    -2.725000000    -2.679000000     3.532000000
H    -2.643000000    -3.198000000     2.731000000
H    -2.777000000    -3.329000000     4.233000000
O     2.166000000     0.002000000    -4.350000000
H     3.003000000    -0.129000000    -4.794000000
H     1.593000000     0.372000000    -5.021000000
O    -0.069000000     1.492000000     5.099000000
H    -0.661000000     0.781000000     4.853000000
H    -0.063000000     2.072000000     4.337000000
O     5.339000000     2.857000000     0.956000000
H     5.472000000     2.098000000     0.389000000
H     6.110000000     3.405000000     0.806000000
O     0.065000000     4.897000000    -6.954000000
H     0.083000000     4.220000000    -6.278000000
H    -0.775000000     5.338000000    -6.830000000
O    -4.388000000    -0.780000000    -6.178000000
H    -4.574000000    -0.283000000    -5.382000000
H    -3.826000000    -1.499000000    -5.886000000
O    -0.352000000     7.189000000    -3.038000000
H    -0.415000000     6.452000000    -3.645000000
H     0.276000000     6.901000000    -2.375000000
O    -6.387000000    -1.941000000     3.642000000
H    -6.404000000    -1.174000000     4.215000000
H    -5.671000000    -1.768000000     3.031000000
O    -0.468000000     4.901000000    -0.815000000
H    -0.441000000     3.966000000    -0.610000000
H     0.444000000     5.135000000    -0.987000000
O    -1.091000000    -5.115000000     2.638000000
H    -1.890000000    -4.816000000     2.202000000
H    -0.601000000    -5.571000000     1.954000000
O     3.326000000    -4.481000000    -1.700000000
H     4.027000000    -5.097000000    -1.488000000
H     2.920000000    -4.281000000    -0.856000000
O    -3.928000000     0.260000000    -3.577000000
H    -3.035000000     0.532000000    -3.365000000
H    -4.440000000     1.067000000    -3.535000000
O    -5.677000000     3.598000000     0.708000000
H    -5.551000000     4.254000000     1.394000000
H    -4.791000000     3.385000000     0.415000000
O     2.397000000     4.078000000     1.071000000
H     2.383000000     4.073000000     0.114000000
H     3.179000000     3.575000000     1.301000000
O    -1.039000000     4.397000000    -4.194000000
H    -0.572000000     3.705000000    -3.726000000
H    -1.724000000     4.677000000    -3.587000000
O     0.582000000     1.734000000    -5.705000000
H     0.565000000     1.940000000    -4.771000000
H    -0.021000000     0.997000000    -5.799000000
O     1.935000000    -1.021000000     4.126000000
H     2.350000000    -0.650000000     3.347000000
H     2.149000000    -0.406000000     4.827000000
O    -0.828000000    -1.192000000    -4.932000000
H    -1.597000000    -1.683000000    -5.219000000
H    -1.180000000    -0.502000000    -4.369000000
O    -5.288000000    -1.511000000    -2.139000000
H    -5.918000000    -1.839000000    -2.780000000
H    -4.808000000    -0.825000000    -2.604000000
O    -3.380000000    -4.134000000     1.225000000
H    -4.109000000    -4.733000000     1.063000000
H    -3.285000000    -3.647000000     0.406000000
O     6.138000000    -2.322000000     1.363000000
H     5.608000000    -3.037000000     1.714000000
H     5.802000000    -1.539000000     1.800000000
O    -3.103000000    -2.574000000    -0.939000000
H    -2.538000000    -2.796000000    -1.679000000
H    -3.931000000    -2.312000000    -1.341000000
O     4.135000000     2.083000000    -3.024000000
H     3.491000000     1.525000000    -3.461000000
H     4.600000000     1.493000000    -2.431000000
O     3.551000000     0.697000000     5.605000000
H     3.970000000    -0.153000000     5.738000000
H     3.894000000     1.246000000     6.310000000
O     1.052000000    -2.654000000    -3.566000000
H     1.400000000    -3.223000000    -4.252000000
H     0.744000000    -1.877000000    -4.033000000
O    -6.899000000    -0.058000000     0.161000000
H    -5.978000000    -0.196000000    -0.064000000
H    -6.880000000     0.603000000     0.853000000
O     2.723000000    -3.744000000     0.758000000
H     2.175000000    -3.256000000     1.373000000
H     3.618000000    -3.485000000     0.977000000
O    -3.776000000     1.517000000     3.208000000
H    -3.744000000     2.177000000     3.900000000
H    -3.331000000     0.756000000     3.582000000
O    -0.061000000    -3.346000000    -1.161000000
H    -0.421000000    -2.615000000    -0.659000000
H     0.332000000    -2.936000000    -1.932000000
