158
-3015.73226
C     1.335000000     0.568000000    -0.410000000
H     2.316000000     0.914000000    -0.723000000
C     0.827000000    -0.675000000    -0.772000000
H     1.424000000    -1.366000000    -1.362000000
C    -0.368000000    -1.140000000    -0.280000000
H    -0.651000000    -2.154000000    -0.510000000
C    -1.169000000    -0.281000000     0.577000000
H    -2.120000000    -0.516000000     1.048000000
C    -0.725000000     0.987000000     0.858000000
H    -1.446000000     1.571000000     1.424000000
C     0.487000000     1.428000000     0.369000000
C     0.945000000     2.854000000     0.647000000
O     1.937000000     3.327000000     0.065000000
O     0.467000000     3.384000000     1.662000000
O    -3.494000000    -1.920000000     3.359000000
H    -4.298000000    -1.442000000     3.153000000
H    -3.213000000    -2.289000000     2.522000000
O     1.749000000    -2.338000000    -5.366000000
H     1.382000000    -3.173000000    -5.076000000
H     2.207000000    -1.998000000    -4.598000000
O     3.154000000    -1.049000000    -3.464000000
H     4.070000000    -1.314000000    -3.385000000
H     3.179000000    -0.092000000    -3.455000000
O    -2.942000000     6.950000000     2.754000000
H    -2.349000000     7.677000000     2.563000000
H    -2.377000000     6.177000000     2.766000000
O    -1.256000000     1.425000000     4.465000000
H    -1.265000000     1.559000000     3.518000000
H    -1.805000000     2.128000000     4.812000000
O     0.670000000    -4.515000000    -4.600000000
H    -0.091000000    -4.913000000    -5.022000000
H     1.156000000    -5.254000000    -4.235000000
O    -5.093000000     2.060000000    -2.187000000
H    -4.904000000     2.358000000    -3.077000000
H    -4.655000000     2.697000000    -1.622000000
O     1.403000000     3.825000000    -2.603000000
H     1.683000000     3.732000000    -1.693000000
H     2.185000000     4.129000000    -3.064000000
O     4.740000000     5.004000000     2.803000000
H     4.602000000     5.204000000     1.877000000
H     5.468000000     5.568000000     3.064000000
O     2.095000000     7.592000000     3.372000000
H     2.792000000     8.072000000     3.818000000
H     2.510000000     7.245000000     2.583000000
O    -5.447000000    -0.291000000     2.328000000
H    -6.357000000    -0.586000000     2.310000000
H    -5.207000000    -0.195000000     1.407000000
O    -5.173000000    -4.979000000     1.468000000
H    -5.190000000    -5.537000000     0.691000000
H    -4.312000000    -4.561000000     1.444000000
O    -0.974000000     5.113000000     3.017000000
H    -0.503000000     4.500000000     2.453000000
H    -1.447000000     4.555000000     3.635000000
O     4.484000000     3.584000000     0.513000000
H     3.535000000     3.659000000     0.418000000
H     4.607000000     2.870000000     1.138000000
O    -2.465000000     3.746000000     5.318000000
H    -2.132000000     4.210000000     6.086000000
H    -3.388000000     3.994000000     5.270000000
O     1.051000000     6.558000000     0.525000000
H     1.081000000     6.086000000     1.358000000
H     0.199000000     6.332000000     0.153000000
O    -3.706000000    -6.896000000    -0.377000000
H    -3.215000000    -6.570000000     0.377000000
H    -4.060000000    -7.737000000    -0.086000000
O     4.588000000     1.407000000    -3.195000000
H     4.339000000     1.439000000    -4.119000000
H     4.805000000     2.313000000    -2.974000000
O    -3.893000000     2.552000000     2.658000000
H    -4.069000000     1.623000000     2.807000000
H    -4.283000000     2.735000000     1.803000000
O     1.846000000     1.867000000     3.139000000
H     2.065000000     2.456000000     3.861000000
H     1.255000000     2.377000000     2.585000000
O     4.997000000     4.054000000    -2.074000000
H     4.527000000     3.873000000    -1.260000000
H     5.341000000     4.940000000    -1.960000000
O    -0.995000000     2.906000000    -3.432000000
H    -1.541000000     3.421000000    -2.838000000
H    -0.101000000     3.185000000    -3.237000000
O     7.201000000     3.182000000     0.267000000
H     6.262000000     3.210000000     0.454000000
H     7.330000000     2.351000000    -0.190000000
O     2.049000000    -4.988000000     3.381000000
H     2.908000000    -5.408000000     3.438000000
H     1.425000000    -5.704000000     3.498000000
O    -2.086000000    -6.172000000     1.704000000
H    -1.474000000    -5.448000000     1.832000000
H    -1.831000000    -6.821000000     2.360000000
O     4.357000000    -5.370000000    -2.404000000
H     3.612000000    -4.774000000    -2.485000000
H     5.070000000    -4.820000000    -2.082000000
O     0.316000000     6.293000000     5.235000000
H     0.832000000     6.952000000     4.771000000
H    -0.056000000     5.747000000     4.542000000
O     6.060000000    -2.578000000    -1.762000000
H     5.517000000    -1.864000000    -1.428000000
H     6.127000000    -2.409000000    -2.702000000
O    -5.217000000     3.418000000     0.275000000
H    -5.452000000     4.284000000     0.608000000
H    -6.051000000     3.026000000     0.016000000
O    -4.189000000    -2.676000000    -1.676000000
H    -3.805000000    -2.802000000    -2.543000000
H    -5.129000000    -2.799000000    -1.809000000
O    -2.400000000    -0.826000000     5.520000000
H    -2.739000000    -1.168000000     4.693000000
H    -1.741000000    -0.181000000     5.260000000
O    -3.325000000     4.441000000    -1.553000000
H    -3.716000000     4.205000000    -0.712000000
H    -3.894000000     5.131000000    -1.895000000
O    -4.526000000    -0.384000000    -0.298000000
H    -4.255000000    -1.104000000    -0.867000000
H    -4.428000000     0.399000000    -0.840000000
O    -5.450000000     0.480000000     4.929000000
H    -5.412000000     1.435000000     4.869000000
H    -5.231000000     0.176000000     4.048000000
O     4.169000000    -1.620000000     1.443000000
H     4.339000000    -1.023000000     0.715000000
H     3.223000000    -1.570000000     1.579000000
O    -0.276000000     6.246000000    -3.476000000
H     0.259000000     6.768000000    -2.878000000
H     0.266000000     5.483000000    -3.679000000
O     2.908000000     4.137000000     4.434000000
H     3.713000000     4.232000000     3.924000000
H     2.233000000     4.547000000     3.894000000
O     0.625000000     1.426000000     6.564000000
H    -0.208000000     1.532000000     7.023000000
H     0.391000000     1.435000000     5.636000000
O    -2.418000000    -2.778000000    -4.076000000
H    -1.781000000    -3.432000000    -3.789000000
H    -1.893000000    -2.003000000    -4.274000000
O    -3.137000000    -3.110000000     0.921000000
H    -2.223000000    -2.845000000     0.826000000
H    -3.519000000    -2.967000000     0.055000000
O    -0.367000000    -3.830000000     2.199000000
H    -0.592000000    -3.764000000     3.127000000
H     0.589000000    -3.791000000     2.180000000
O    -1.686000000     0.318000000    -3.065000000
H    -1.315000000     1.196000000    -3.155000000
H    -1.842000000     0.220000000    -2.125000000
O     5.160000000     1.442000000     2.226000000
H     5.173000000     0.494000000     2.352000000
H     4.751000000     1.785000000     3.020000000
O     1.303000000     1.270000000    -4.806000000
H     2.115000000     1.765000000    -4.696000000
H     0.812000000     1.433000000    -4.000000000
O     1.813000000     7.784000000    -1.917000000
H     1.741000000     8.734000000    -1.822000000
H     1.646000000     7.442000000    -1.039000000
O     4.904000000    -0.245000000    -0.960000000
H     4.364000000     0.265000000    -1.564000000
H     5.627000000     0.339000000    -0.733000000
O     1.720000000    -0.883000000     2.104000000
H     1.674000000     0.064000000     2.234000000
H     0.952000000    -1.088000000     1.570000000
O    -1.288000000     5.677000000    -0.316000000
H    -0.943000000     4.909000000     0.139000000
H    -1.795000000     5.316000000    -1.044000000
