158
-3040.67285
C     0.572000000     0.738000000    -1.131000000
H     1.041000000     1.075000000    -2.051000000
C     0.620000000    -0.647000000    -0.926000000
H     0.972000000    -1.179000000    -1.806000000
C     0.108000000    -1.245000000     0.233000000
H     0.142000000    -2.310000000     0.422000000
C    -0.544000000    -0.431000000     1.094000000
H    -1.007000000    -0.845000000     1.986000000
C    -0.516000000     0.992000000     0.948000000
H    -1.156000000     1.580000000     1.601000000
C    -0.003000000     1.588000000    -0.211000000
C    -0.062000000     3.090000000    -0.411000000
O     0.380000000     3.552000000    -1.406000000
O    -0.682000000     3.860000000     0.343000000
O    -1.603000000    -3.788000000     1.986000000
H    -1.460000000    -4.702000000     1.738000000
H    -0.746000000    -3.484000000     2.283000000
O     0.353000000     0.182000000    -4.433000000
H    -0.266000000    -0.401000000    -3.995000000
H     1.114000000    -0.369000000    -4.614000000
O     4.428000000    -0.930000000    -4.790000000
H     5.258000000    -0.567000000    -5.099000000
H     4.153000000    -0.338000000    -4.090000000
O    -0.873000000    -2.099000000    -4.225000000
H    -0.851000000    -2.441000000    -5.119000000
H    -1.491000000    -2.668000000    -3.767000000
O    -5.951000000     1.143000000    -1.013000000
H    -5.083000000     1.212000000    -0.617000000
H    -6.330000000     2.016000000    -0.912000000
O    -1.383000000     2.215000000    -3.263000000
H    -1.071000000     2.321000000    -4.161000000
H    -0.631000000     2.450000000    -2.719000000
O     4.583000000     3.855000000    -1.057000000
H     4.303000000     4.706000000    -0.720000000
H     4.342000000     3.234000000    -0.370000000
O    -4.316000000     6.370000000     2.083000000
H    -3.564000000     5.782000000     2.155000000
H    -4.871000000     6.141000000     2.828000000
O     2.088000000     5.085000000     0.816000000
H     1.468000000     4.827000000     0.133000000
H     2.664000000     4.327000000     0.915000000
O     1.628000000     3.697000000    -5.720000000
H     1.733000000     4.645000000    -5.636000000
H     2.145000000     3.334000000    -5.001000000
O    -1.437000000     0.580000000    -6.546000000
H    -0.675000000     0.284000000    -6.048000000
H    -1.375000000     1.536000000    -6.531000000
O    -1.759000000     6.236000000    -0.653000000
H    -1.180000000     5.901000000     0.032000000
H    -1.934000000     5.478000000    -1.210000000
O     0.581000000     4.075000000     4.872000000
H    -0.209000000     3.595000000     5.118000000
H     0.274000000     4.746000000     4.262000000
O     0.760000000    -7.632000000     3.899000000
H     0.917000000    -7.054000000     3.152000000
H     1.556000000    -7.562000000     4.427000000
O    -0.621000000    -0.595000000     5.202000000
H    -1.381000000    -0.232000000     4.746000000
H    -0.814000000    -0.464000000     6.130000000
O     2.585000000     3.259000000    -3.058000000
H     3.319000000     3.724000000    -2.658000000
H     1.945000000     3.168000000    -2.352000000
O     2.030000000    -0.167000000     3.923000000
H     1.151000000     0.063000000     4.222000000
H     2.511000000     0.661000000     3.932000000
O    -5.743000000     1.899000000     1.815000000
H    -6.120000000     2.012000000     2.688000000
H    -6.349000000     2.355000000     1.231000000
O    -1.924000000     4.777000000     2.443000000
H    -1.114000000     5.214000000     2.706000000
H    -1.703000000     4.338000000     1.621000000
O     0.638000000     6.336000000    -2.105000000
H     0.886000000     5.412000000    -2.077000000
H    -0.279000000     6.346000000    -1.832000000
O     2.646000000    -2.718000000    -6.359000000
H     3.260000000    -2.162000000    -5.879000000
H     1.943000000    -2.894000000    -5.734000000
O    -2.996000000    -6.325000000     1.687000000
H    -2.641000000    -7.208000000     1.582000000
H    -3.059000000    -6.203000000     2.635000000
O     3.974000000    -3.168000000    -2.871000000
H     3.974000000    -2.552000000    -3.604000000
H     4.080000000    -2.617000000    -2.095000000
O     4.567000000    -1.193000000    -0.996000000
H     4.275000000    -0.389000000    -1.425000000
H     5.335000000    -0.930000000    -0.490000000
O    -3.080000000    -3.558000000    -3.223000000
H    -3.386000000    -3.872000000    -2.372000000
H    -3.755000000    -2.943000000    -3.509000000
O    -4.404000000     7.588000000    -0.486000000
H    -3.556000000     7.338000000    -0.853000000
H    -4.445000000     7.134000000     0.355000000
O    -3.042000000     0.224000000     3.647000000
H    -3.489000000     0.716000000     4.335000000
H    -3.537000000    -0.592000000     3.576000000
O    -3.891000000    -4.502000000    -0.885000000
H    -3.314000000    -4.434000000    -0.124000000
H    -4.669000000    -4.953000000    -0.557000000
O     1.231000000    -5.141000000    -0.299000000
H     0.521000000    -5.328000000    -0.913000000
H     0.918000000    -5.480000000     0.539000000
O     3.769000000     0.909000000    -2.757000000
H     3.078000000     1.400000000    -2.313000000
H     3.993000000     1.446000000    -3.517000000
O     4.081000000    -0.101000000     1.798000000
H     3.514000000    -0.566000000     2.412000000
H     4.769000000    -0.730000000     1.583000000
O     0.398000000     6.166000000     2.615000000
H     0.874000000     5.728000000     1.909000000
H     0.394000000     7.090000000     2.364000000
O    -2.125000000     3.598000000     4.764000000
H    -2.687000000     2.826000000     4.705000000
H    -2.167000000     3.993000000     3.893000000
O    -3.153000000    -0.160000000    -2.711000000
H    -2.206000000    -0.103000000    -2.838000000
H    -3.263000000    -0.251000000    -1.765000000
O    -1.219000000    -5.471000000    -1.639000000
H    -1.576000000    -5.938000000    -0.884000000
H    -1.904000000    -4.847000000    -1.880000000
O     1.160000000    -5.266000000     2.425000000
H     1.010000000    -4.642000000     3.135000000
H     2.077000000    -5.137000000     2.182000000
O     3.933000000    -4.585000000     3.499000000
H     4.002000000    -5.249000000     2.813000000
H     3.787000000    -3.766000000     3.025000000
O    -3.594000000     0.342000000     0.314000000
H    -4.268000000     0.431000000     0.987000000
H    -2.812000000     0.734000000     0.704000000
O    -3.044000000    -4.840000000     4.207000000
H    -2.495000000    -4.285000000     3.653000000
H    -3.934000000    -4.518000000     4.060000000
O     2.213000000    -2.348000000     5.949000000
H     2.409000000    -1.580000000     5.413000000
H     1.677000000    -2.904000000     5.383000000
O     3.166000000     2.277000000     0.842000000
H     2.387000000     2.292000000     1.399000000
H     3.544000000     1.409000000     0.982000000
O    -1.112000000     3.064000000    -6.019000000
H    -0.190000000     3.282000000    -5.885000000
H    -1.504000000     3.872000000    -6.351000000
O     2.088000000     8.366000000    -0.760000000
H     1.744000000     7.807000000    -1.457000000
H     1.330000000     8.550000000    -0.205000000
O    -3.943000000     3.054000000    -2.592000000
H    -3.112000000     2.623000000    -2.792000000
H    -3.872000000     3.293000000    -1.667000000
O     2.930000000    -5.621000000    -2.479000000
H     2.255000000    -5.629000000    -1.800000000
H     3.098000000    -4.692000000    -2.639000000
O     3.014000000    -2.775000000     1.128000000
H     3.245000000    -2.053000000     0.543000000
H     2.546000000    -3.395000000     0.570000000
O     0.345000000    -2.791000000     3.729000000
H     0.910000000    -2.019000000     3.711000000
H    -0.479000000    -2.477000000     4.101000000
O    -3.852000000     3.884000000     0.349000000
H    -3.144000000     3.881000000     0.993000000
H    -4.617000000     3.571000000     0.832000000
