158
-3048.62870
C     1.402000000     0.441000000    -0.249000000
H     2.420000000     0.736000000    -0.489000000
C     0.655000000    -0.468000000    -1.009000000
H     1.050000000    -0.960000000    -1.894000000
C    -0.611000000    -0.831000000    -0.638000000
H    -1.129000000    -1.593000000    -1.242000000
C    -1.172000000    -0.301000000     0.501000000
H    -2.158000000    -0.681000000     0.757000000
C    -0.478000000     0.744000000     1.171000000
H    -1.005000000     1.143000000     2.034000000
C     0.798000000     1.179000000     0.786000000
C     1.511000000     2.264000000     1.608000000
O     2.722000000     2.430000000     1.474000000
O     0.901000000     2.917000000     2.440000000
O     1.492000000    -2.529000000     1.285000000
H     0.699000000    -2.005000000     1.167000000
H     1.958000000    -2.101000000     2.003000000
O     3.745000000     0.479000000    -3.206000000
H     3.769000000     1.423000000    -3.359000000
H     4.167000000     0.362000000    -2.355000000
O     4.026000000    -2.670000000     0.178000000
H     3.080000000    -2.683000000     0.320000000
H     4.395000000    -2.467000000     1.038000000
O    -0.480000000     2.792000000    -4.052000000
H    -0.215000000     3.438000000    -3.397000000
H    -0.761000000     2.034000000    -3.540000000
O    -2.783000000     5.527000000     4.428000000
H    -3.468000000     4.910000000     4.688000000
H    -2.267000000     5.051000000     3.777000000
O    -5.378000000    -1.655000000     1.061000000
H    -5.600000000    -1.903000000     0.163000000
H    -4.598000000    -2.170000000     1.265000000
O    -4.043000000     0.068000000    -5.766000000
H    -4.812000000     0.531000000    -6.098000000
H    -3.313000000     0.663000000    -5.935000000
O    -0.323000000     6.922000000     3.695000000
H    -0.910000000     7.260000000     4.372000000
H    -0.450000000     5.974000000     3.719000000
O     4.234000000     4.758000000     2.656000000
H     3.810000000     4.004000000     2.246000000
H     5.162000000     4.656000000     2.443000000
O     4.444000000     3.429000000    -3.600000000
H     4.244000000     4.037000000    -2.888000000
H     4.080000000     3.847000000    -4.380000000
O    -4.374000000    -4.226000000     3.783000000
H    -3.926000000    -5.041000000     4.011000000
H    -4.208000000    -4.114000000     2.847000000
O     1.698000000     4.605000000    -1.706000000
H     1.682000000     4.682000000    -0.752000000
H     2.100000000     5.421000000    -2.005000000
O    -4.896000000     0.472000000     4.531000000
H    -4.470000000     0.032000000     3.795000000
H    -4.898000000    -0.181000000     5.231000000
O     1.335000000     2.572000000     4.983000000
H     1.676000000     1.689000000     4.844000000
H     1.039000000     2.853000000     4.117000000
O    -6.263000000    -3.852000000    -0.518000000
H    -7.008000000    -3.991000000     0.066000000
H    -5.613000000    -4.496000000    -0.237000000
O    -2.393000000    -5.846000000     1.894000000
H    -2.417000000    -6.436000000     2.648000000
H    -1.469000000    -5.611000000     1.803000000
O     3.574000000     6.644000000     0.122000000
H     4.138000000     7.091000000     0.753000000
H     2.823000000     6.350000000     0.639000000
O    -6.050000000    -3.206000000    -3.110000000
H    -5.518000000    -3.917000000    -3.468000000
H    -6.154000000    -3.429000000    -2.185000000
O    -4.563000000     3.683000000     2.188000000
H    -4.425000000     3.548000000     3.126000000
H    -4.431000000     2.818000000     1.800000000
O    -1.537000000     4.144000000     2.626000000
H    -1.614000000     4.454000000     1.723000000
H    -0.700000000     3.679000000     2.649000000
O     0.162000000    -4.936000000     2.059000000
H     0.295000000    -3.991000000     1.982000000
H     0.834000000    -5.319000000     1.495000000
O    -0.691000000    -0.713000000    -6.992000000
H    -1.168000000     0.092000000    -6.790000000
H    -0.685000000    -1.201000000    -6.169000000
O     4.484000000     0.468000000     1.622000000
H     5.110000000     0.744000000     2.291000000
H     3.773000000     1.107000000     1.680000000
O    -1.033000000    -2.099000000    -4.676000000
H    -1.779000000    -2.065000000    -4.076000000
H    -0.484000000    -2.805000000    -4.335000000
O    -0.580000000    -1.739000000     3.337000000
H     0.179000000    -1.298000000     3.719000000
H    -0.954000000    -2.241000000     4.062000000
O    -3.095000000    -0.723000000     3.027000000
H    -3.216000000    -1.671000000     3.081000000
H    -2.162000000    -0.590000000     3.192000000
O    -2.003000000     2.078000000    -1.352000000
H    -2.882000000     1.702000000    -1.317000000
H    -1.438000000     1.403000000    -0.977000000
O     4.490000000     3.090000000    -0.286000000
H     4.108000000     3.696000000    -0.921000000
H     3.810000000     2.980000000     0.379000000
O     3.737000000     4.803000000     5.320000000
H     2.979000000     4.225000000     5.408000000
H     3.877000000     4.872000000     4.376000000
O     1.122000000     5.494000000     1.010000000
H     1.145000000     4.745000000     1.605000000
H     0.300000000     5.393000000     0.529000000
O    -1.485000000     4.557000000    -0.072000000
H    -2.369000000     4.924000000    -0.085000000
H    -1.554000000     3.746000000    -0.576000000
O    -2.766000000    -6.958000000    -1.200000000
H    -2.070000000    -6.714000000    -0.590000000
H    -2.324000000    -7.047000000    -2.045000000
O     1.446000000     3.123000000     7.684000000
H     2.316000000     2.777000000     7.881000000
H     1.359000000     3.026000000     6.735000000
O     0.076000000    -7.181000000    -0.254000000
H     0.624000000    -7.061000000    -1.030000000
H     0.515000000    -7.870000000     0.245000000
O    -4.153000000     0.461000000    -1.676000000
H    -3.921000000    -0.412000000    -1.994000000
H    -5.011000000     0.637000000    -2.062000000
O     3.657000000    -1.775000000     2.873000000
H     4.139000000    -1.008000000     2.564000000
H     4.281000000    -2.243000000     3.428000000
O    -3.601000000    -1.592000000    -3.323000000
H    -4.418000000    -2.089000000    -3.275000000
H    -3.695000000    -1.052000000    -4.108000000
O    -4.072000000     1.275000000     0.943000000
H    -4.350000000     1.059000000     0.053000000
H    -3.618000000     0.490000000     1.250000000
O     6.511000000     4.669000000     1.395000000
H     6.808000000     3.778000000     1.214000000
H     5.778000000     4.804000000     0.794000000
O     4.107000000     0.075000000    -5.830000000
H     3.757000000     0.377000000    -4.992000000
H     3.373000000    -0.377000000    -6.248000000
O    -3.106000000    -3.279000000     1.219000000
H    -2.291000000    -2.819000000     1.016000000
H    -2.846000000    -4.196000000     1.312000000
O     5.194000000    -0.427000000    -1.021000000
H     5.137000000    -1.334000000    -0.721000000
H     4.730000000     0.076000000    -0.352000000
O    -0.048000000    -5.487000000    -4.442000000
H    -0.664000000    -6.102000000    -4.044000000
H    -0.402000000    -5.326000000    -5.317000000
O     1.925000000    -5.829000000    -2.250000000
H     2.505000000    -5.074000000    -2.152000000
H     1.351000000    -5.597000000    -2.980000000
O     2.530000000     0.113000000     5.150000000
H     2.296000000    -0.750000000     5.492000000
H     3.477000000     0.174000000     5.281000000
O     3.887000000    -3.804000000    -2.407000000
H     4.108000000    -3.459000000    -3.272000000
H     4.125000000    -3.102000000    -1.801000000
O    -1.761000000     1.625000000     5.092000000
H    -2.539000000     2.141000000     4.880000000
H    -1.026000000     2.182000000     4.831000000
O     7.095000000     1.743000000     0.242000000
H     6.143000000     1.701000000     0.149000000
H     7.385000000     2.267000000    -0.505000000
