158
-3006.96984
C     0.995000000     0.703000000    -0.772000000
H     1.582000000     1.100000000    -1.596000000
C     0.760000000    -0.631000000    -0.865000000
H     1.107000000    -1.215000000    -1.713000000
C    -0.192000000    -1.235000000    -0.057000000
H    -0.556000000    -2.194000000    -0.153000000
C    -0.811000000    -0.535000000     0.944000000
H    -1.680000000    -0.963000000     1.437000000
C    -0.393000000     0.791000000     1.163000000
H    -0.992000000     1.380000000     1.853000000
C     0.436000000     1.473000000     0.278000000
C     0.712000000     2.975000000     0.347000000
O     1.679000000     3.480000000    -0.202000000
O     0.109000000     3.769000000     1.024000000
O    -2.601000000    -2.420000000     5.310000000
H    -1.814000000    -1.876000000     5.286000000
H    -2.649000000    -2.811000000     4.438000000
O     2.180000000    -2.407000000     1.370000000
H     1.922000000    -1.489000000     1.292000000
H     2.671000000    -2.448000000     2.191000000
O     2.965000000     4.271000000    -3.589000000
H     2.107000000     4.603000000    -3.328000000
H     3.589000000     4.807000000    -3.100000000
O    -0.600000000    -5.419000000    -6.092000000
H    -1.168000000    -5.313000000    -5.329000000
H    -0.725000000    -4.616000000    -6.598000000
O     4.700000000    -1.720000000     0.532000000
H     5.218000000    -1.616000000    -0.266000000
H     3.796000000    -1.789000000     0.224000000
O    -6.780000000    -0.910000000     2.338000000
H    -6.078000000    -0.261000000     2.290000000
H    -7.082000000    -1.005000000     1.435000000
O     0.368000000     2.094000000    -5.212000000
H     0.212000000     1.289000000    -5.707000000
H    -0.342000000     2.679000000    -5.476000000
O    -0.700000000     8.786000000     0.771000000
H    -1.012000000     9.539000000     0.269000000
H    -1.497000000     8.333000000     1.044000000
O    -6.057000000    -3.745000000    -0.625000000
H    -6.351000000    -4.212000000    -1.408000000
H    -5.919000000    -4.433000000     0.026000000
O    -4.229000000     4.964000000     3.934000000
H    -5.023000000     4.431000000     3.934000000
H    -3.739000000     4.664000000     3.168000000
O    -0.004000000     3.985000000     3.689000000
H     0.523000000     3.327000000     4.143000000
H     0.230000000     3.884000000     2.766000000
O     1.996000000     5.914000000     1.171000000
H     1.776000000     5.093000000     0.730000000
H     1.401000000     5.951000000     1.920000000
O     2.627000000     1.656000000    -3.879000000
H     2.741000000     2.578000000    -3.648000000
H     1.791000000     1.627000000    -4.344000000
O    -2.649000000    -3.899000000     1.031000000
H    -2.298000000    -3.243000000     1.634000000
H    -2.043000000    -4.636000000     1.101000000
O     1.039000000     5.433000000    -2.088000000
H     0.115000000     5.472000000    -1.840000000
H     1.363000000     4.630000000    -1.680000000
O    -4.865000000     1.082000000     2.506000000
H    -4.046000000     1.127000000     3.000000000
H    -5.185000000     1.984000000     2.490000000
O     5.597000000    -3.034000000    -3.274000000
H     5.319000000    -2.218000000    -2.858000000
H     4.843000000    -3.305000000    -3.798000000
O    -0.532000000    -5.862000000     0.795000000
H     0.158000000    -5.681000000     0.156000000
H    -0.146000000    -5.622000000     1.638000000
O     3.813000000     7.686000000     0.162000000
H     3.271000000     7.018000000     0.582000000
H     3.346000000     8.507000000     0.319000000
O    -3.308000000    -2.109000000    -3.057000000
H    -3.744000000    -1.535000000    -2.427000000
H    -3.717000000    -2.964000000    -2.924000000
O    -4.500000000    -0.071000000    -1.396000000
H    -4.678000000     0.492000000    -0.643000000
H    -3.679000000     0.263000000    -1.757000000
O    -3.294000000     3.962000000     1.584000000
H    -3.568000000     3.576000000     0.752000000
H    -2.386000000     4.226000000     1.438000000
O     0.868000000    -5.358000000     3.267000000
H     1.719000000    -5.059000000     3.585000000
H     0.856000000    -6.296000000     3.458000000
O     6.457000000    -0.522000000    -1.413000000
H     6.318000000     0.394000000    -1.173000000
H     7.407000000    -0.637000000    -1.381000000
O     4.258000000     3.280000000     3.427000000
H     4.083000000     2.800000000     2.617000000
H     4.580000000     4.133000000     3.135000000
O    -1.095000000     6.091000000     5.248000000
H    -0.686000000     5.392000000     4.738000000
H    -1.135000000     6.834000000     4.647000000
O    -4.125000000    -4.912000000    -2.399000000
H    -3.907000000    -5.208000000    -3.283000000
H    -5.069000000    -4.757000000    -2.424000000
O    -0.829000000    -4.165000000    -2.269000000
H    -1.679000000    -3.836000000    -1.979000000
H    -0.226000000    -3.925000000    -1.565000000
O     1.664000000     8.288000000    -1.489000000
H     1.293000000     7.409000000    -1.559000000
H     1.908000000     8.518000000    -2.385000000
O     4.421000000     6.804000000    -2.699000000
H     4.030000000     7.415000000    -3.324000000
H     4.176000000     7.151000000    -1.841000000
O    -3.087000000     0.762000000     4.866000000
H    -3.701000000     0.273000000     5.413000000
H    -2.374000000     0.146000000     4.695000000
O    -2.097000000     0.434000000    -2.073000000
H    -1.775000000    -0.154000000    -2.756000000
H    -1.385000000     0.471000000    -1.434000000
O     4.270000000     4.103000000    -0.339000000
H     4.004000000     4.988000000    -0.584000000
H     3.489000000     3.719000000     0.060000000
O    -1.338000000     5.898000000     0.016000000
H    -0.919000000     5.074000000     0.264000000
H    -0.740000000     6.575000000     0.333000000
O    -2.948000000     2.973000000    -2.753000000
H    -2.615000000     2.093000000    -2.578000000
H    -2.578000000     3.203000000    -3.605000000
O    -3.189000000    -6.722000000    -0.508000000
H    -2.616000000    -6.043000000    -0.153000000
H    -3.549000000    -6.338000000    -1.308000000
O    -0.966000000    -1.239000000    -4.045000000
H    -1.731000000    -1.778000000    -3.844000000
H    -0.218000000    -1.809000000    -3.870000000
O     3.627000000    -1.039000000    -2.529000000
H     3.123000000    -1.239000000    -3.318000000
H     3.796000000    -0.099000000    -2.584000000
O     4.330000000     1.048000000    -6.180000000
H     3.768000000     1.318000000    -5.454000000
H     4.254000000     0.094000000    -6.199000000
O    -0.899000000    -3.293000000     3.207000000
H    -0.263000000    -2.577000000     3.224000000
H    -0.437000000    -4.033000000     3.600000000
O    -3.571000000     5.652000000    -1.623000000
H    -2.705000000     5.723000000    -1.222000000
H    -3.539000000     4.833000000    -2.118000000
O     6.003000000     2.152000000    -1.372000000
H     6.025000000     2.153000000    -2.329000000
H     5.190000000     2.607000000    -1.151000000
O    -1.419000000    -6.514000000    -3.669000000
H    -0.730000000    -7.178000000    -3.634000000
H    -1.137000000    -5.844000000    -3.046000000
O    -0.405000000    -0.783000000     5.600000000
H     0.434000000    -1.140000000     5.307000000
H    -0.174000000    -0.170000000     6.297000000
O    -5.604000000    -4.831000000     1.899000000
H    -4.675000000    -4.708000000     1.704000000
H    -5.821000000    -5.678000000     1.508000000
O     1.610000000    -4.648000000    -0.633000000
H     2.482000000    -4.632000000    -1.028000000
H     1.543000000    -3.816000000    -0.165000000
O    -1.608000000     3.319000000     6.817000000
H    -1.026000000     3.840000000     6.264000000
H    -2.177000000     2.860000000     6.198000000
O     6.794000000     5.417000000     1.061000000
H     6.001000000     5.070000000     0.652000000
H     7.278000000     5.821000000     0.340000000
