158
-2999.33798
C     1.332000000    -0.125000000     0.424000000
H     2.342000000    -0.250000000     0.806000000
C     0.684000000    -0.957000000    -0.469000000
H     1.144000000    -1.834000000    -0.916000000
C    -0.629000000    -0.703000000    -0.763000000
H    -1.181000000    -1.318000000    -1.487000000
C    -1.295000000     0.348000000    -0.221000000
H    -2.301000000     0.622000000    -0.531000000
C    -0.629000000     1.192000000     0.696000000
H    -1.099000000     2.088000000     1.092000000
C     0.692000000     0.917000000     1.077000000
C     1.462000000     1.779000000     2.023000000
O     2.584000000     1.504000000     2.488000000
O     1.018000000     2.902000000     2.202000000
O     1.305000000    -0.362000000     4.678000000
H     1.506000000    -0.107000000     3.778000000
H     0.360000000    -0.227000000     4.759000000
O     5.410000000     5.639000000     3.902000000
H     4.536000000     5.323000000     3.676000000
H     5.962000000     5.359000000     3.171000000
O     0.600000000    -2.602000000    -6.636000000
H    -0.080000000    -2.325000000    -6.021000000
H     1.300000000    -2.945000000    -6.081000000
O     2.867000000     5.484000000     2.709000000
H     2.794000000     4.718000000     2.139000000
H     2.741000000     6.231000000     2.124000000
O    -2.294000000     1.702000000    -5.640000000
H    -1.435000000     2.023000000    -5.914000000
H    -2.119000000     0.839000000    -5.265000000
O     4.418000000     2.171000000     0.822000000
H     3.751000000     1.947000000     1.471000000
H     3.933000000     2.604000000     0.120000000
O    -1.678000000    -0.058000000     4.064000000
H    -1.880000000    -0.977000000     3.888000000
H    -2.451000000     0.419000000     3.760000000
O    -5.060000000     1.679000000    -1.072000000
H    -4.301000000     2.064000000    -1.509000000
H    -5.657000000     2.415000000    -0.935000000
O     5.491000000    -1.336000000    -0.161000000
H     5.615000000    -0.955000000     0.708000000
H     6.080000000    -2.090000000    -0.179000000
O     3.293000000     2.718000000     4.979000000
H     3.529000000     3.565000000     4.600000000
H     2.888000000     2.238000000     4.257000000
O     3.304000000    -3.170000000    -5.686000000
H     2.932000000    -2.727000000    -4.923000000
H     4.085000000    -3.611000000    -5.350000000
O    -0.622000000    -3.017000000     1.511000000
H    -0.516000000    -2.371000000     0.812000000
H    -1.532000000    -2.922000000     1.789000000
O    -4.972000000    -0.564000000     0.745000000
H    -4.940000000     0.088000000     0.045000000
H    -4.329000000    -1.224000000     0.486000000
O    -3.170000000     3.512000000    -1.844000000
H    -3.200000000     4.123000000    -1.108000000
H    -2.585000000     3.929000000    -2.477000000
O    -4.599000000    -6.511000000     0.646000000
H    -3.748000000    -6.306000000     0.260000000
H    -4.516000000    -6.245000000     1.562000000
O    -4.961000000    -1.566000000    -4.921000000
H    -5.199000000    -0.873000000    -5.537000000
H    -4.945000000    -2.363000000    -5.452000000
O     0.858000000    -5.224000000     0.278000000
H     1.537000000    -4.612000000     0.562000000
H     0.035000000    -4.784000000     0.489000000
O     1.141000000     4.117000000     6.597000000
H     0.834000000     3.934000000     5.709000000
H     1.859000000     3.499000000     6.734000000
O    -3.578000000     5.760000000     0.042000000
H    -2.657000000     5.688000000     0.293000000
H    -3.891000000     6.539000000     0.502000000
O    -3.253000000    -3.376000000     0.267000000
H    -4.202000000    -3.268000000     0.323000000
H    -3.085000000    -3.541000000    -0.661000000
O    -2.679000000    -4.878000000    -4.094000000
H    -2.984000000    -4.984000000    -4.995000000
H    -1.755000000    -5.127000000    -4.122000000
O     1.777000000    -1.427000000    -3.762000000
H     2.369000000    -1.567000000    -3.023000000
H     1.954000000    -0.530000000    -4.044000000
O    -2.592000000     4.615000000     5.603000000
H    -3.267000000     4.140000000     5.118000000
H    -1.771000000     4.364000000     5.179000000
O    -0.579000000     2.934000000     4.497000000
H    -0.883000000     2.059000000     4.737000000
H    -0.174000000     2.821000000     3.637000000
O    -2.582000000    -0.924000000    -7.023000000
H    -2.803000000    -0.252000000    -7.668000000
H    -2.628000000    -1.747000000    -7.509000000
O    -1.514000000     6.919000000     1.837000000
H    -0.809000000     6.341000000     1.546000000
H    -1.098000000     7.776000000     1.932000000
O     4.754000000    -0.583000000     3.478000000
H     4.489000000     0.239000000     3.065000000
H     4.222000000    -1.251000000     3.046000000
O     0.414000000     5.689000000     3.871000000
H     0.354000000     4.756000000     3.666000000
H     1.207000000     5.983000000     3.424000000
O    -1.873000000    -0.620000000    -4.285000000
H    -2.190000000    -1.031000000    -5.089000000
H    -2.392000000    -1.023000000    -3.589000000
O    -4.285000000     0.822000000     2.849000000
H    -5.095000000     1.324000000     2.763000000
H    -4.363000000     0.128000000     2.194000000
O     4.198000000    -5.079000000    -2.481000000
H     5.029000000    -5.547000000    -2.559000000
H     3.804000000    -5.422000000    -1.679000000
O     5.180000000    -0.134000000    -3.639000000
H     4.607000000    -0.778000000    -3.222000000
H     6.003000000    -0.602000000    -3.781000000
O     2.010000000     1.487000000    -4.723000000
H     1.358000000     1.429000000    -4.025000000
H     2.785000000     1.854000000    -4.297000000
O    -2.127000000    -6.712000000    -0.623000000
H    -1.702000000    -7.565000000    -0.716000000
H    -1.662000000    -6.144000000    -1.237000000
O    -3.173000000    -2.549000000    -2.749000000
H    -2.734000000    -3.288000000    -3.172000000
H    -3.726000000    -2.174000000    -3.434000000
O     4.107000000    -2.346000000    -2.428000000
H     3.919000000    -3.274000000    -2.567000000
H     4.699000000    -2.331000000    -1.676000000
O     0.051000000     4.738000000     0.746000000
H     0.109000000     4.215000000    -0.053000000
H     0.608000000     4.279000000     1.374000000
O     6.309000000     1.585000000    -1.355000000
H     5.856000000     2.010000000    -0.626000000
H     6.052000000     0.665000000    -1.293000000
O    -4.568000000     3.831000000     3.885000000
H    -4.565000000     3.049000000     3.333000000
H    -5.467000000     4.155000000     3.836000000
O     2.629000000    -2.413000000     2.233000000
H     1.678000000    -2.352000000     2.142000000
H     2.767000000    -3.181000000     2.787000000
O     0.084000000     3.805000000    -1.794000000
H    -0.394000000     4.239000000    -2.501000000
H     0.078000000     2.879000000    -2.034000000
O     2.677000000     3.160000000    -0.893000000
H     3.013000000     3.183000000    -1.789000000
H     1.730000000     3.258000000    -0.990000000
O     2.236000000     0.026000000     7.204000000
H     3.182000000     0.147000000     7.130000000
H     1.943000000    -0.132000000     6.307000000
O    -6.905000000    -2.111000000    -2.049000000
H    -6.676000000    -2.532000000    -1.221000000
H    -6.112000000    -2.182000000    -2.581000000
O    -0.408000000    -6.628000000    -2.831000000
H     0.508000000    -6.356000000    -2.874000000
H    -0.389000000    -7.567000000    -3.018000000
O     5.006000000     0.897000000     6.077000000
H     4.652000000     1.664000000     5.627000000
H     5.331000000     0.334000000     5.374000000
O     0.032000000     1.131000000    -2.998000000
H    -0.205000000     0.587000000    -2.247000000
H    -0.590000000     0.880000000    -3.681000000
O     6.968000000     1.327000000     1.986000000
H     7.078000000     1.903000000     2.743000000
H     6.220000000     1.692000000     1.514000000
