158
-3052.58022
C     1.224000000    -0.134000000     0.781000000
H     2.222000000    -0.297000000     1.181000000
C     0.908000000    -0.866000000    -0.350000000
H     1.598000000    -1.575000000    -0.801000000
C    -0.288000000    -0.671000000    -1.003000000
H    -0.463000000    -1.219000000    -1.889000000
C    -1.144000000     0.300000000    -0.487000000
H    -2.070000000     0.402000000    -1.048000000
C    -0.854000000     1.040000000     0.639000000
H    -1.663000000     1.615000000     1.083000000
C     0.337000000     0.759000000     1.319000000
C     0.628000000     1.500000000     2.617000000
O     1.537000000     1.171000000     3.361000000
O     0.105000000     2.612000000     2.722000000
O     0.782000000    -1.644000000     3.529000000
H     1.048000000    -0.742000000     3.352000000
H     1.258000000    -1.884000000     4.324000000
O    -1.570000000    -2.299000000    -7.696000000
H    -1.811000000    -3.074000000    -7.189000000
H    -0.836000000    -1.916000000    -7.215000000
O     2.586000000     3.907000000     3.545000000
H     2.100000000     3.095000000     3.401000000
H     2.007000000     4.595000000     3.216000000
O     5.385000000     2.606000000     1.425000000
H     5.423000000     2.074000000     2.220000000
H     4.511000000     2.996000000     1.439000000
O    -2.905000000     1.569000000     4.957000000
H    -3.594000000     0.907000000     5.022000000
H    -2.865000000     1.782000000     4.025000000
O    -5.611000000     1.197000000    -1.335000000
H    -5.317000000     0.307000000    -1.532000000
H    -4.849000000     1.747000000    -1.517000000
O     4.587000000     0.300000000     0.060000000
H     4.958000000     1.064000000     0.502000000
H     4.614000000    -0.394000000     0.719000000
O     2.898000000     2.714000000    -4.591000000
H     3.540000000     3.369000000    -4.319000000
H     2.675000000     2.247000000    -3.786000000
O    -5.962000000    -1.508000000     2.167000000
H    -5.743000000    -2.150000000     2.843000000
H    -5.282000000    -1.619000000     1.502000000
O     2.080000000     1.312000000     6.051000000
H     1.566000000     0.652000000     6.517000000
H     1.667000000     1.373000000     5.190000000
O    -0.482000000    -3.132000000     1.234000000
H    -0.556000000    -2.470000000     0.546000000
H     0.036000000    -2.708000000     1.919000000
O    -4.630000000     1.330000000     1.898000000
H    -5.088000000     1.732000000     1.160000000
H    -4.357000000     0.472000000     1.573000000
O    -3.434000000     2.733000000    -1.630000000
H    -3.448000000     3.316000000    -0.871000000
H    -2.757000000     3.098000000    -2.200000000
O     6.459000000     2.562000000     4.392000000
H     5.590000000     2.742000000     4.751000000
H     7.041000000     2.587000000     5.151000000
O    -1.910000000    -1.807000000     3.686000000
H    -0.955000000    -1.748000000     3.712000000
H    -2.196000000    -1.427000000     4.517000000
O    -0.533000000    -6.066000000    -0.812000000
H    -1.227000000    -6.669000000    -1.078000000
H    -0.017000000    -5.928000000    -1.606000000
O     2.364000000    -4.742000000    -1.878000000
H     2.729000000    -5.627000000    -1.882000000
H     2.710000000    -4.345000000    -1.078000000
O    -1.511000000     3.882000000    -3.825000000
H    -1.705000000     4.503000000    -4.526000000
H    -0.562000000     3.932000000    -3.715000000
O    -3.636000000     4.939000000     0.490000000
H    -2.981000000     5.217000000     1.130000000
H    -4.415000000     5.451000000     0.707000000
O    -3.294000000    -1.657000000     1.294000000
H    -3.069000000    -2.359000000     0.684000000
H    -2.809000000    -1.867000000     2.091000000
O    -2.172000000    -4.613000000    -3.446000000
H    -2.538000000    -4.479000000    -4.320000000
H    -1.233000000    -4.727000000    -3.595000000
O    -5.375000000     3.087000000    -4.202000000
H    -4.649000000     2.861000000    -3.621000000
H    -5.374000000     2.397000000    -4.866000000
O     0.279000000    -1.390000000    -6.034000000
H     0.062000000    -0.498000000    -5.764000000
H     1.011000000    -1.640000000    -5.471000000
O    -2.048000000     5.826000000     5.699000000
H    -2.892000000     5.670000000     5.275000000
H    -1.552000000     5.022000000     5.547000000
O    -0.600000000     3.276000000     5.341000000
H    -1.347000000     2.690000000     5.217000000
H    -0.102000000     3.204000000     4.527000000
O     5.511000000    -0.166000000     5.673000000
H     6.349000000    -0.473000000     5.326000000
H     4.931000000    -0.142000000     4.911000000
O    -4.982000000    -1.976000000    -4.579000000
H    -4.444000000    -1.419000000    -5.142000000
H    -5.585000000    -2.412000000    -5.181000000
O    -1.960000000     6.977000000     2.650000000
H    -1.464000000     6.191000000     2.422000000
H    -1.396000000     7.445000000     3.266000000
O     4.122000000     0.515000000     3.209000000
H     3.234000000     0.872000000     3.181000000
H     4.044000000    -0.354000000     2.815000000
O     2.120000000     6.161000000     1.366000000
H     1.872000000     6.975000000     1.805000000
H     2.068000000     6.366000000     0.433000000
O     1.536000000     3.958000000     7.495000000
H     1.019000000     3.652000000     6.749000000
H     2.290000000     3.369000000     7.522000000
O    -4.893000000    -1.678000000    -1.718000000
H    -4.834000000    -1.766000000    -2.670000000
H    -4.129000000    -2.149000000    -1.387000000
O    -5.412000000     3.549000000     3.926000000
H    -6.288000000     3.226000000     3.713000000
H    -4.818000000     2.926000000     3.507000000
O     3.692000000    -2.354000000    -3.401000000
H     3.211000000    -3.071000000    -2.988000000
H     4.594000000    -2.467000000    -3.102000000
O     0.247000000     1.288000000    -4.983000000
H     0.091000000     1.364000000    -4.042000000
H     1.075000000     1.747000000    -5.127000000
O    -2.407000000    -3.359000000    -1.018000000
H    -2.404000000    -3.932000000    -1.785000000
H    -1.564000000    -3.522000000    -0.595000000
O     2.950000000     0.385000000    -2.278000000
H     3.271000000    -0.459000000    -2.594000000
H     3.321000000     0.470000000    -1.400000000
O    -0.880000000     4.780000000     1.634000000
H    -0.580000000     4.937000000     0.739000000
H    -0.479000000     3.945000000     1.878000000
O    -1.530000000     2.627000000    -6.534000000
H    -1.912000000     3.466000000    -6.276000000
H    -1.082000000     2.316000000    -5.747000000
O     4.279000000     3.123000000    -1.564000000
H     3.674000000     3.468000000    -0.908000000
H     4.667000000     2.352000000    -1.149000000
O     2.363000000    -3.770000000     0.847000000
H     1.406000000    -3.767000000     0.844000000
H     2.599000000    -4.257000000     1.637000000
O    -0.091000000     4.632000000    -0.848000000
H     0.495000000     5.373000000    -1.003000000
H     0.319000000     3.902000000    -1.310000000
O     1.444000000    -2.247000000     6.162000000
H     1.685000000    -1.651000000     6.871000000
H     1.022000000    -2.985000000     6.602000000
O     2.455000000     3.698000000     0.449000000
H     1.641000000     3.194000000     0.433000000
H     2.191000000     4.569000000     0.748000000
O     0.456000000    -5.176000000    -3.827000000
H     0.850000000    -5.393000000    -4.672000000
H     1.198000000    -5.108000000    -3.227000000
O     4.600000000    -1.997000000     2.147000000
H     5.275000000    -2.452000000     2.650000000
H     3.936000000    -2.665000000     1.979000000
O     4.138000000     2.931000000     5.845000000
H     3.584000000     2.161000000     5.979000000
H     3.686000000     3.437000000     5.170000000
O     0.528000000     1.983000000    -2.168000000
H     1.311000000     1.442000000    -2.070000000
H    -0.142000000     1.529000000    -1.657000000
