158
-2974.65303
C     1.414000000    -0.194000000    -0.274000000
H     2.440000000    -0.355000000    -0.594000000
C     0.403000000    -0.165000000    -1.186000000
H     0.611000000    -0.455000000    -2.212000000
C    -0.895000000    -0.047000000    -0.789000000
H    -1.741000000     0.014000000    -1.468000000
C    -1.225000000     0.203000000     0.535000000
H    -2.246000000     0.375000000     0.865000000
C    -0.182000000     0.259000000     1.427000000
H    -0.456000000     0.451000000     2.461000000
C     1.186000000     0.176000000     1.081000000
C     2.411000000     0.255000000     2.024000000
O     3.514000000     0.293000000     1.539000000
O     2.290000000     0.223000000     3.207000000
O     1.561000000    -1.977000000     4.408000000
H     1.743000000    -1.163000000     3.938000000
H     1.683000000    -2.665000000     3.754000000
O     4.258000000     4.631000000     3.718000000
H     3.844000000     5.447000000     3.436000000
H     4.512000000     4.198000000     2.903000000
O    -7.510000000    -1.391000000     0.686000000
H    -6.626000000    -1.159000000     0.400000000
H    -8.082000000    -0.796000000     0.202000000
O    -0.939000000     2.026000000    -6.725000000
H    -0.254000000     1.695000000    -7.306000000
H    -1.037000000     1.346000000    -6.058000000
O    -2.189000000     1.335000000     4.096000000
H    -2.220000000     2.030000000     3.438000000
H    -2.832000000     0.693000000     3.797000000
O    -4.373000000     1.716000000     1.095000000
H    -3.698000000     2.239000000     1.527000000
H    -4.938000000     1.419000000     1.808000000
O     4.388000000     3.284000000    -2.852000000
H     5.003000000     2.554000000    -2.787000000
H     4.881000000     4.042000000    -2.539000000
O     5.517000000     3.985000000     1.046000000
H     5.685000000     3.048000000     0.947000000
H     6.253000000     4.409000000     0.605000000
O     4.991000000     1.234000000     3.686000000
H     5.270000000     1.810000000     2.975000000
H     4.229000000     0.772000000     3.336000000
O    -4.936000000    -3.681000000     1.012000000
H    -4.404000000    -4.137000000     0.359000000
H    -4.753000000    -2.753000000     0.864000000
O     1.363000000    -3.570000000     2.230000000
H     1.008000000    -4.422000000     2.484000000
H     0.686000000    -3.185000000     1.672000000
O    -4.589000000    -1.144000000    -0.226000000
H    -4.223000000    -0.262000000    -0.165000000
H    -5.034000000    -1.161000000    -1.073000000
O    -5.873000000    -1.034000000    -2.508000000
H    -5.293000000    -1.288000000    -3.225000000
H    -6.310000000    -0.242000000    -2.822000000
O    -1.016000000     3.091000000     0.054000000
H    -1.264000000     2.171000000    -0.042000000
H    -0.815000000     3.189000000     0.985000000
O    -6.015000000     4.013000000     0.491000000
H    -6.921000000     3.803000000     0.718000000
H    -5.602000000     3.162000000     0.344000000
O    -3.517000000    -1.452000000    -3.992000000
H    -3.777000000    -0.807000000    -4.650000000
H    -3.588000000    -2.294000000    -4.442000000
O     2.428000000     4.330000000     5.713000000
H     2.499000000     3.383000000     5.837000000
H     3.036000000     4.524000000     5.000000000
O     1.925000000     0.513000000     7.798000000
H     1.098000000     0.827000000     7.431000000
H     2.071000000     1.066000000     8.565000000
O     7.768000000    -0.497000000     0.802000000
H     7.135000000     0.211000000     0.679000000
H     7.452000000    -0.969000000     1.572000000
O     1.177000000     3.108000000    -3.743000000
H     0.855000000     2.249000000    -4.015000000
H     0.624000000     3.348000000    -3.000000000
O    -2.939000000     3.762000000     2.790000000
H    -2.757000000     4.684000000     2.608000000
H    -3.486000000     3.776000000     3.575000000
O    -3.133000000    -4.484000000    -1.054000000
H    -2.525000000    -5.010000000    -1.573000000
H    -3.635000000    -3.989000000    -1.702000000
O    -1.425000000     3.169000000    -2.527000000
H    -1.245000000     3.216000000    -1.588000000
H    -1.432000000     4.082000000    -2.815000000
O     3.647000000    -3.679000000    -2.285000000
H     3.126000000    -3.420000000    -1.524000000
H     4.239000000    -4.353000000    -1.952000000
O     0.203000000     3.189000000     7.169000000
H    -0.728000000     2.969000000     7.197000000
H     0.514000000     2.809000000     6.347000000
O    -0.519000000    -0.201000000     5.802000000
H    -1.006000000     0.460000000     5.309000000
H    -0.006000000    -0.664000000     5.140000000
O    -1.605000000    -1.340000000    -6.678000000
H    -2.271000000    -1.904000000    -7.072000000
H    -2.066000000    -0.523000000    -6.487000000
O     2.286000000     2.911000000    -0.724000000
H     2.532000000     2.002000000    -0.551000000
H     2.748000000     3.134000000    -1.532000000
O     5.228000000    -1.894000000     1.730000000
H     4.767000000    -1.082000000     1.520000000
H     4.691000000    -2.583000000     1.338000000
O     1.049000000     2.211000000     4.628000000
H     1.405000000     1.392000000     4.282000000
H     0.687000000     2.657000000     3.862000000
O    -1.145000000     1.057000000    -4.150000000
H    -1.321000000     0.203000000    -3.754000000
H    -1.258000000     1.681000000    -3.433000000
O    -3.298000000     4.987000000    -0.289000000
H    -4.102000000     4.618000000     0.077000000
H    -2.628000000     4.328000000    -0.108000000
O    -3.983000000    -0.494000000     4.184000000
H    -3.585000000    -0.932000000     4.936000000
H    -4.756000000    -1.020000000     3.981000000
O     5.538000000    -0.479000000    -3.464000000
H     6.067000000    -0.939000000    -2.812000000
H     6.031000000    -0.568000000    -4.279000000
O    -4.533000000     3.331000000    -4.086000000
H    -3.898000000     3.935000000    -3.701000000
H    -4.036000000     2.529000000    -4.243000000
O     3.176000000    -0.322000000    -5.311000000
H     3.845000000    -0.274000000    -4.628000000
H     2.863000000    -1.226000000    -5.276000000
O    -0.681000000    -2.983000000     0.669000000
H    -1.420000000    -3.384000000     0.212000000
H    -0.688000000    -2.070000000     0.382000000
O    -0.808000000    -3.795000000    -4.363000000
H    -0.376000000    -4.104000000    -5.159000000
H    -1.638000000    -3.429000000    -4.669000000
O     0.943000000     3.316000000     2.109000000
H     1.301000000     4.114000000     2.498000000
H     1.459000000     3.186000000     1.313000000
O     0.961000000    -2.061000000    -6.705000000
H     1.152000000    -2.313000000    -5.801000000
H     0.062000000    -1.734000000    -6.677000000
O    -2.470000000     2.734000000     6.389000000
H    -2.205000000     2.169000000     5.663000000
H    -3.184000000     3.263000000     6.032000000
O     3.625000000    -4.305000000     0.733000000
H     2.736000000    -4.081000000     1.009000000
H     3.575000000    -5.230000000     0.492000000
O     5.587000000     1.381000000     0.502000000
H     5.499000000     1.411000000    -0.450000000
H     4.936000000     0.738000000     0.784000000
O     2.053000000    -2.080000000     7.306000000
H     2.070000000    -1.139000000     7.480000000
H     1.779000000    -2.149000000     6.392000000
O    -4.853000000    -3.977000000    -3.147000000
H    -4.453000000    -3.976000000    -4.017000000
H    -5.794000000    -3.933000000    -3.317000000
O     1.851000000    -2.672000000    -4.282000000
H     2.547000000    -2.910000000    -3.670000000
H     1.045000000    -2.957000000    -3.851000000
O     4.725000000     1.268000000     6.748000000
H     3.860000000     0.961000000     7.019000000
H     4.662000000     1.349000000     5.796000000
O     5.750000000    -1.232000000     5.041000000
H     5.239000000    -0.464000000     4.785000000
H     5.779000000    -1.774000000     4.253000000
