158
-3019.29647
C     1.434000000     0.280000000    -0.215000000
H     2.487000000     0.362000000    -0.472000000
C     0.565000000    -0.208000000    -1.226000000
H     0.937000000    -0.520000000    -2.198000000
C    -0.797000000    -0.270000000    -0.896000000
H    -1.410000000    -0.643000000    -1.674000000
C    -1.320000000     0.027000000     0.429000000
H    -2.362000000    -0.019000000     0.734000000
C    -0.361000000     0.474000000     1.313000000
H    -0.678000000     0.689000000     2.330000000
C     1.025000000     0.605000000     1.062000000
C     1.979000000     0.830000000     2.172000000
O     3.152000000     0.966000000     1.883000000
O     1.592000000     0.908000000     3.320000000
O     0.729000000    -1.633000000     4.370000000
H     1.011000000    -0.811000000     3.968000000
H     1.532000000    -2.145000000     4.459000000
O    -3.089000000    -4.710000000    -0.398000000
H    -2.349000000    -4.106000000    -0.455000000
H    -2.869000000    -5.291000000     0.330000000
O     2.382000000     4.708000000     3.723000000
H     2.182000000     5.629000000     3.558000000
H     2.840000000     4.417000000     2.934000000
O    -2.338000000     2.343000000    -3.871000000
H    -2.518000000     1.535000000    -4.352000000
H    -2.958000000     2.330000000    -3.141000000
O     7.442000000     1.280000000    -0.170000000
H     6.535000000     1.150000000    -0.447000000
H     7.596000000     0.590000000     0.476000000
O    -1.963000000     0.450000000     4.989000000
H    -1.730000000    -0.108000000     4.247000000
H    -2.878000000     0.685000000     4.834000000
O    -4.087000000     1.416000000     2.543000000
H    -3.446000000     2.121000000     2.637000000
H    -4.442000000     1.296000000     3.424000000
O     7.214000000    -1.573000000     0.293000000
H     7.624000000    -2.241000000     0.843000000
H     6.393000000    -1.365000000     0.740000000
O     1.841000000     3.535000000    -2.584000000
H     2.295000000     2.920000000    -2.008000000
H     2.292000000     4.368000000    -2.448000000
O     6.881000000     4.701000000     2.675000000
H     6.368000000     3.893000000     2.715000000
H     6.911000000     4.920000000     1.743000000
O     3.433000000     1.917000000     5.029000000
H     3.355000000     2.858000000     4.873000000
H     2.690000000     1.535000000     4.563000000
O    -1.740000000    -1.852000000     3.373000000
H    -0.835000000    -1.965000000     3.665000000
H    -1.819000000    -2.426000000     2.611000000
O     6.214000000     4.371000000    -0.257000000
H     6.063000000     5.096000000    -0.864000000
H     5.726000000     3.638000000    -0.634000000
O    -6.693000000     0.142000000     1.368000000
H    -5.821000000     0.452000000     1.611000000
H    -6.728000000     0.246000000     0.417000000
O    -6.435000000     0.827000000    -1.266000000
H    -6.129000000     0.692000000    -2.162000000
H    -7.371000000     1.008000000    -1.357000000
O    -2.035000000     3.120000000     1.672000000
H    -1.476000000     2.690000000     1.025000000
H    -1.441000000     3.691000000     2.159000000
O    -5.901000000     0.524000000    -4.144000000
H    -5.552000000     1.020000000    -4.884000000
H    -5.502000000    -0.342000000    -4.226000000
O     3.175000000    -3.280000000     4.354000000
H     3.061000000    -3.136000000     3.414000000
H     3.905000000    -3.897000000     4.414000000
O     7.814000000    -0.091000000     2.784000000
H     7.039000000     0.344000000     3.142000000
H     7.754000000    -0.990000000     3.108000000
O     2.272000000     1.484000000    -5.109000000
H     1.929000000     2.030000000    -4.402000000
H     2.207000000     0.589000000    -4.774000000
O    -5.659000000    -4.034000000    -0.016000000
H    -4.742000000    -4.286000000    -0.131000000
H    -5.833000000    -3.431000000    -0.739000000
O    -0.540000000    -3.912000000    -1.258000000
H    -1.192000000    -3.572000000    -1.870000000
H    -0.349000000    -4.795000000    -1.577000000
O    -4.493000000     4.038000000     0.849000000
H    -4.024000000     3.268000000     1.169000000
H    -4.186000000     4.754000000     1.406000000
O     5.711000000    -2.487000000    -1.899000000
H     6.264000000    -2.115000000    -1.212000000
H     5.124000000    -3.086000000    -1.436000000
O    -1.278000000    -1.487000000     6.972000000
H    -1.223000000    -0.870000000     6.242000000
H    -1.946000000    -2.117000000     6.704000000
O    -3.437000000    -2.354000000     5.432000000
H    -4.394000000    -2.357000000     5.451000000
H    -3.215000000    -1.866000000     4.639000000
O    -2.719000000    -0.570000000    -5.135000000
H    -2.338000000    -1.269000000    -5.667000000
H    -3.486000000    -0.283000000    -5.630000000
O     2.784000000     3.671000000     0.972000000
H     3.479000000     3.946000000     0.373000000
H     3.040000000     2.791000000     1.247000000
O     4.758000000    -1.045000000     1.250000000
H     4.173000000    -0.329000000     1.498000000
H     4.250000000    -1.838000000     1.420000000
O     0.582000000     2.311000000     5.168000000
H     0.932000000     1.624000000     4.601000000
H     0.350000000     3.021000000     4.569000000
O    -3.766000000     2.235000000    -1.471000000
H    -4.129000000     1.515000000    -0.955000000
H    -3.965000000     3.019000000    -0.960000000
O     4.435000000    -0.239000000    -2.838000000
H     4.740000000    -1.059000000    -2.450000000
H     4.967000000    -0.136000000    -3.627000000
O     1.939000000    -1.011000000    -4.271000000
H     2.523000000    -0.925000000    -3.518000000
H     1.566000000    -1.888000000    -4.187000000
O     0.313000000    -2.531000000     0.945000000
H     0.030000000    -2.995000000     0.156000000
H     0.400000000    -1.619000000     0.668000000
O    -2.495000000    -3.192000000    -3.208000000
H    -2.180000000    -3.085000000    -4.105000000
H    -3.126000000    -2.482000000    -3.090000000
O    -1.268000000    -2.821000000    -5.853000000
H    -0.372000000    -3.157000000    -5.875000000
H    -1.723000000    -3.307000000    -6.541000000
O    -0.584000000     4.824000000     3.345000000
H     0.337000000     4.942000000     3.577000000
H    -0.941000000     5.712000000     3.320000000
O     4.360000000     2.449000000    -1.597000000
H     4.682000000     2.946000000    -2.348000000
H     4.263000000     1.555000000    -1.925000000
O    -0.173000000     0.157000000    -6.253000000
H     0.534000000    -0.248000000    -5.752000000
H    -0.921000000     0.157000000    -5.656000000
O    -0.960000000     1.871000000     7.386000000
H    -1.742000000     1.325000000     7.467000000
H    -0.725000000     1.817000000     6.460000000
O     2.582000000    -3.583000000     1.655000000
H     1.779000000    -3.086000000     1.498000000
H     2.284000000    -4.479000000     1.806000000
O    -0.302000000     3.534000000    -0.850000000
H    -1.002000000     3.098000000    -1.336000000
H     0.492000000     3.058000000    -1.095000000
O     5.352000000     2.040000000     2.984000000
H     5.053000000     1.677000000     2.150000000
H     4.548000000     2.188000000     3.483000000
O     2.396000000     0.189000000     6.872000000
H     3.079000000     0.672000000     6.408000000
H     1.586000000     0.646000000     6.650000000
O    -6.031000000    -2.384000000    -2.312000000
H    -5.786000000    -2.256000000    -3.228000000
H    -6.888000000    -2.810000000    -2.350000000
O     4.437000000    -1.603000000     6.226000000
H     3.507000000    -1.426000000     6.364000000
H     4.462000000    -2.161000000     5.449000000
O     1.479000000    -3.709000000    -3.538000000
H     2.053000000    -4.450000000    -3.343000000
H     0.790000000    -3.760000000    -2.876000000
O     6.117000000     0.579000000     5.828000000
H     5.460000000     1.248000000     5.634000000
H     5.628000000    -0.118000000     6.264000000
