158
-3021.46590
C     0.603000000     0.860000000    -1.028000000
H     1.026000000     1.321000000    -1.917000000
C    -0.204000000    -0.265000000    -1.257000000
H    -0.396000000    -0.625000000    -2.265000000
C    -0.743000000    -0.965000000    -0.173000000
H    -1.399000000    -1.699000000    -0.354000000
C    -0.459000000    -0.576000000     1.124000000
H    -0.806000000    -1.214000000     1.933000000
C     0.351000000     0.513000000     1.346000000
H     0.539000000     0.849000000     2.362000000
C     0.754000000     1.315000000     0.255000000
C     1.580000000     2.535000000     0.474000000
O     2.073000000     3.208000000    -0.438000000
O     1.860000000     2.809000000     1.631000000
O     2.632000000    -4.935000000     2.492000000
H     3.414000000    -5.464000000     2.652000000
H     2.688000000    -4.699000000     1.566000000
O     1.975000000     5.784000000    -4.683000000
H     1.368000000     5.618000000    -3.962000000
H     2.842000000     5.639000000    -4.305000000
O    -7.222000000    -1.682000000     0.545000000
H    -7.090000000    -1.088000000    -0.194000000
H    -6.516000000    -1.466000000     1.155000000
O    -1.304000000     6.532000000    -2.930000000
H    -0.601000000     5.883000000    -2.904000000
H    -2.024000000     6.126000000    -2.447000000
O    -6.082000000    -3.235000000    -4.069000000
H    -5.590000000    -3.810000000    -4.655000000
H    -5.506000000    -2.482000000    -3.933000000
O     0.933000000     2.810000000     4.198000000
H     1.159000000     1.928000000     4.495000000
H     1.234000000     2.842000000     3.290000000
O     2.766000000     5.908000000    -0.226000000
H     2.762000000     4.959000000    -0.100000000
H     2.125000000     6.236000000     0.405000000
O    -0.300000000     2.405000000    -3.790000000
H    -0.490000000     3.237000000    -3.356000000
H    -0.822000000     1.760000000    -3.312000000
O     2.505000000     2.179000000    -4.922000000
H     1.706000000     2.283000000    -4.406000000
H     2.266000000     2.480000000    -5.799000000
O    -1.875000000    -4.149000000     0.639000000
H    -1.488000000    -3.563000000     1.289000000
H    -1.127000000    -4.489000000     0.148000000
O     0.383000000     4.567000000    -2.008000000
H    -0.385000000     4.426000000    -1.454000000
H     1.091000000     4.105000000    -1.560000000
O    -5.212000000    -0.716000000     2.148000000
H    -4.474000000    -0.811000000     2.750000000
H    -5.650000000     0.087000000     2.431000000
O    -0.206000000    -2.014000000     6.214000000
H     0.388000000    -2.343000000     5.540000000
H    -0.460000000    -1.144000000     5.906000000
O    -1.378000000    -6.430000000     2.981000000
H    -0.528000000    -6.782000000     2.715000000
H    -1.921000000    -6.496000000     2.196000000
O     4.281000000     0.446000000     1.399000000
H     3.424000000     0.868000000     1.338000000
H     4.795000000     0.845000000     0.697000000
O     0.501000000    -5.050000000    -0.505000000
H     1.413000000    -4.763000000    -0.471000000
H     0.411000000    -5.652000000     0.233000000
O     4.277000000     7.912000000    -1.674000000
H     3.734000000     7.272000000    -1.215000000
H     3.660000000     8.585000000    -1.963000000
O    -3.651000000    -3.110000000    -2.059000000
H    -2.812000000    -3.192000000    -1.607000000
H    -3.931000000    -4.013000000    -2.211000000
O    -4.466000000    -0.827000000    -3.361000000
H    -4.055000000    -1.688000000    -3.284000000
H    -4.880000000    -0.683000000    -2.510000000
O    -4.473000000     0.991000000    -0.412000000
H    -5.264000000     0.548000000    -0.719000000
H    -4.309000000     0.616000000     0.453000000
O     3.003000000    -2.423000000    -2.709000000
H     2.561000000    -2.393000000    -3.557000000
H     3.466000000    -1.587000000    -2.650000000
O     4.381000000     3.610000000     2.206000000
H     3.479000000     3.371000000     1.991000000
H     4.426000000     3.538000000     3.160000000
O    -1.113000000     5.082000000     3.948000000
H    -0.640000000     4.250000000     3.975000000
H    -2.035000000     4.831000000     3.887000000
O    -2.691000000    -5.337000000    -3.975000000
H    -1.788000000    -5.024000000    -3.923000000
H    -3.172000000    -4.614000000    -4.378000000
O     0.064000000    -4.992000000    -3.293000000
H     0.121000000    -5.035000000    -2.338000000
H     0.522000000    -5.777000000    -3.595000000
O     5.709000000     0.677000000     4.298000000
H     6.598000000     1.031000000     4.297000000
H     5.507000000     0.532000000     3.374000000
O     1.579000000    -2.788000000     4.142000000
H     2.146000000    -3.112000000     4.841000000
H     1.670000000    -3.433000000     3.441000000
O    -3.591000000    -1.738000000     4.248000000
H    -3.912000000    -1.996000000     5.113000000
H    -3.010000000    -2.452000000     3.985000000
O     0.318000000    -0.932000000    -5.691000000
H    -0.424000000    -1.379000000    -5.284000000
H     0.003000000    -0.687000000    -6.561000000
O     4.584000000     3.694000000    -1.489000000
H     4.501000000     4.451000000    -2.070000000
H     3.734000000     3.633000000    -1.053000000
O     2.052000000     4.965000000     5.217000000
H     2.931000000     4.778000000     4.886000000
H     1.481000000     4.368000000     4.733000000
O    -1.305000000     4.190000000     0.636000000
H    -0.514000000     4.046000000     1.154000000
H    -2.023000000     4.078000000     1.259000000
O    -2.564000000    -0.255000000    -6.268000000
H    -2.411000000    -0.623000000    -5.398000000
H    -3.181000000     0.462000000    -6.121000000
O    -1.615000000    -2.521000000    -4.296000000
H    -2.418000000    -2.873000000    -4.680000000
H    -1.213000000    -3.269000000    -3.853000000
O    -6.875000000    -3.662000000     2.784000000
H    -6.397000000    -2.970000000     2.327000000
H    -6.751000000    -4.439000000     2.239000000
O     2.941000000    -0.505000000    -5.455000000
H     3.034000000     0.306000000    -4.956000000
H     1.995000000    -0.628000000    -5.539000000
O     0.864000000     6.666000000     1.555000000
H    -0.049000000     6.393000000     1.643000000
H     0.969000000     7.363000000     2.203000000
O     4.927000000     4.486000000     4.749000000
H     4.838000000     5.438000000     4.805000000
H     5.690000000     4.285000000     5.291000000
O     1.863000000     0.320000000     4.793000000
H     2.687000000     0.582000000     5.205000000
H     2.009000000    -0.586000000     4.520000000
O     5.318000000     6.292000000     1.626000000
H     4.593000000     6.266000000     1.002000000
H     5.233000000     5.480000000     2.126000000
O     3.034000000    -4.258000000    -0.379000000
H     3.225000000    -3.451000000    -0.856000000
H     3.843000000    -4.767000000    -0.435000000
O    -2.483000000     2.517000000    -1.780000000
H    -2.650000000     3.244000000    -1.179000000
H    -2.974000000     1.783000000    -1.410000000
O     5.646000000     2.920000000    -3.978000000
H     4.974000000     3.027000000    -4.652000000
H     5.279000000     3.349000000    -3.204000000
O    -1.109000000    -3.496000000     3.191000000
H    -0.766000000    -4.382000000     3.305000000
H    -0.391000000    -2.925000000     3.465000000
O    -4.192000000    -5.550000000     0.612000000
H    -3.538000000    -4.856000000     0.538000000
H    -3.680000000    -6.355000000     0.685000000
O    -1.412000000     0.119000000     5.438000000
H    -2.277000000    -0.077000000     5.077000000
H    -0.884000000     0.360000000     4.678000000
O     6.973000000     3.668000000     1.843000000
H     7.162000000     4.077000000     0.999000000
H     6.021000000     3.567000000     1.853000000
O     6.184000000     1.709000000    -0.558000000
H     5.568000000     2.138000000    -1.152000000
H     6.861000000     2.367000000    -0.399000000
