158
-3035.84925
C     1.313000000     0.628000000     0.342000000
H     2.226000000     1.196000000     0.502000000
C     0.395000000     1.110000000    -0.674000000
H     0.596000000     2.001000000    -1.265000000
C    -0.838000000     0.485000000    -0.780000000
H    -1.657000000     0.945000000    -1.432000000
C    -1.089000000    -0.684000000    -0.057000000
H    -1.991000000    -1.244000000    -0.290000000
C    -0.102000000    -1.270000000     0.750000000
H    -0.313000000    -2.256000000     1.155000000
C     1.114000000    -0.605000000     0.936000000
C     2.079000000    -1.136000000     1.981000000
O     3.130000000    -0.569000000     2.209000000
O     1.885000000    -2.140000000     2.727000000
O     1.796000000    -4.935000000     3.607000000
H     2.141000000    -4.043000000     3.564000000
H     1.315000000    -4.967000000     4.433000000
O    -3.531000000    -1.795000000    -3.406000000
H    -3.524000000    -2.639000000    -2.954000000
H    -2.606000000    -1.564000000    -3.494000000
O    -3.568000000    -3.490000000     0.642000000
H    -2.907000000    -3.527000000     1.334000000
H    -4.197000000    -2.836000000     0.946000000
O     5.217000000     2.925000000     3.519000000
H     4.637000000     3.392000000     2.917000000
H     5.656000000     2.274000000     2.972000000
O     1.764000000     5.386000000     0.453000000
H     1.402000000     4.868000000     1.172000000
H     1.232000000     6.181000000     0.439000000
O     4.118000000     3.965000000     1.361000000
H     3.446000000     4.470000000     0.903000000
H     4.869000000     3.973000000     0.768000000
O    -2.576000000     6.502000000    -2.209000000
H    -2.110000000     5.901000000    -1.630000000
H    -2.812000000     5.969000000    -2.968000000
O     1.422000000     1.030000000    -5.350000000
H     1.691000000     0.796000000    -6.239000000
H     0.665000000     1.603000000    -5.472000000
O     3.478000000     5.110000000    -1.949000000
H     2.792000000     5.245000000    -1.296000000
H     3.023000000     5.168000000    -2.790000000
O    -0.234000000     2.937000000    -6.457000000
H    -1.176000000     2.928000000    -6.286000000
H    -0.143000000     2.521000000    -7.315000000
O    -2.559000000     2.892000000    -2.769000000
H    -2.344000000     3.449000000    -3.517000000
H    -2.390000000     3.441000000    -2.004000000
O     3.460000000     2.680000000    -4.720000000
H     4.078000000     2.357000000    -4.065000000
H     2.603000000     2.394000000    -4.403000000
O    -0.015000000    -5.666000000    -3.172000000
H    -0.225000000    -5.280000000    -2.321000000
H     0.812000000    -5.256000000    -3.423000000
O    -2.105000000    -1.352000000    -7.264000000
H    -1.557000000    -1.987000000    -6.803000000
H    -2.905000000    -1.301000000    -6.740000000
O    -3.915000000    -4.080000000    -1.808000000
H    -3.767000000    -3.881000000    -0.883000000
H    -4.144000000    -5.009000000    -1.819000000
O     4.113000000    -0.400000000    -2.440000000
H     3.644000000    -0.287000000    -1.614000000
H     4.424000000     0.478000000    -2.661000000
O     3.128000000    -6.580000000     1.213000000
H     3.495000000    -5.867000000     1.736000000
H     3.033000000    -7.305000000     1.831000000
O     1.700000000    -4.141000000     0.813000000
H     1.520000000    -4.773000000     1.509000000
H     1.798000000    -3.305000000     1.267000000
O    -1.226000000     4.287000000    -0.574000000
H    -1.931000000     4.069000000     0.037000000
H    -0.425000000     4.045000000    -0.110000000
O    -6.408000000     1.994000000    -2.204000000
H    -6.869000000     1.460000000    -2.850000000
H    -5.690000000     1.437000000    -1.902000000
O    -3.160000000     2.574000000    -6.635000000
H    -2.924000000     2.053000000    -5.867000000
H    -3.906000000     2.111000000    -7.017000000
O     2.172000000    -1.481000000    -4.111000000
H     1.644000000    -0.698000000    -4.264000000
H     2.972000000    -1.154000000    -3.700000000
O    -5.361000000    -0.866000000    -5.374000000
H    -4.969000000    -0.800000000    -4.504000000
H    -5.276000000    -1.791000000    -5.606000000
O     0.399000000     0.981000000     5.585000000
H     0.018000000     1.172000000     4.728000000
H     1.340000000     1.104000000     5.461000000
O     0.274000000     3.731000000     2.148000000
H     0.530000000     2.901000000     2.549000000
H    -0.647000000     3.837000000     2.386000000
O    -0.474000000    -4.334000000    -0.967000000
H    -0.853000000    -3.482000000    -0.749000000
H     0.423000000    -4.289000000    -0.636000000
O    -3.053000000     4.999000000    -4.562000000
H    -3.098000000     5.240000000    -5.487000000
H    -3.968000000     4.912000000    -4.292000000
O    -3.090000000     3.244000000     1.159000000
H    -3.230000000     2.300000000     1.235000000
H    -3.677000000     3.626000000     1.812000000
O    -0.726000000     1.053000000     2.708000000
H    -0.231000000     0.927000000     1.899000000
H    -1.638000000     0.908000000     2.457000000
O     0.215000000    -2.488000000     4.657000000
H     0.398000000    -1.710000000     5.184000000
H     0.830000000    -2.433000000     3.926000000
O    -3.594000000     0.725000000     2.634000000
H    -3.866000000     1.287000000     3.359000000
H    -3.800000000    -0.162000000     2.929000000
O     5.165000000    -1.200000000     4.486000000
H     4.305000000    -0.782000000     4.447000000
H     5.459000000    -1.059000000     5.386000000
O    -4.561000000    -0.122000000    -1.593000000
H    -4.085000000    -0.601000000    -2.272000000
H    -5.335000000    -0.658000000    -1.420000000
O     4.868000000    -5.914000000     3.832000000
H     5.242000000    -6.333000000     4.608000000
H     3.996000000    -5.632000000     4.110000000
O    -2.248000000     0.885000000    -4.719000000
H    -2.407000000     1.396000000    -3.925000000
H    -1.818000000     0.088000000    -4.410000000
O    -5.811000000     4.506000000    -3.456000000
H    -6.298000000     4.644000000    -2.644000000
H    -5.687000000     3.558000000    -3.504000000
O    -4.792000000     5.102000000    -0.389000000
H    -4.446000000     5.589000000     0.358000000
H    -4.431000000     4.222000000    -0.290000000
O     4.813000000    -2.985000000     2.207000000
H     3.958000000    -2.555000000     2.204000000
H     5.183000000    -2.776000000     3.064000000
O    -0.958000000    -1.404000000    -3.986000000
H    -0.003000000    -1.367000000    -3.938000000
H    -1.139000000    -2.059000000    -4.660000000
O    -2.584000000    -6.826000000     0.604000000
H    -3.361000000    -6.812000000     1.164000000
H    -1.861000000    -6.614000000     1.194000000
O     3.050000000     0.986000000     4.470000000
H     3.485000000     1.813000000     4.260000000
H     3.079000000     0.487000000     3.653000000
O    -0.408000000    -6.215000000     2.403000000
H    -0.491000000    -7.010000000     2.930000000
H     0.488000000    -5.916000000     2.561000000
O     4.062000000    -4.743000000    -1.260000000
H     3.348000000    -5.129000000    -1.767000000
H     3.695000000    -4.617000000    -0.385000000
O     7.150000000     0.900000000    -0.936000000
H     6.488000000     0.591000000    -0.318000000
H     7.703000000     0.136000000    -1.097000000
O     7.538000000    -0.910000000     2.504000000
H     6.893000000    -0.819000000     3.205000000
H     7.349000000    -1.763000000     2.114000000
O     5.184000000     0.098000000     0.785000000
H     5.842000000    -0.389000000     1.282000000
H     4.351000000    -0.303000000     1.032000000
O    -6.960000000     2.263000000     0.653000000
H    -6.483000000     2.194000000    -0.174000000
H    -7.149000000     1.357000000     0.898000000
O    -1.912000000    -3.822000000     2.751000000
H    -1.332000000    -4.583000000     2.770000000
H    -1.523000000    -3.209000000     3.374000000
