158
-3011.38555
C     1.436000000     0.267000000     0.221000000
H     2.438000000     0.614000000     0.460000000
C     0.532000000     1.097000000    -0.407000000
H     0.922000000     2.019000000    -0.830000000
C    -0.829000000     0.757000000    -0.590000000
H    -1.515000000     1.493000000    -1.149000000
C    -1.256000000    -0.475000000    -0.059000000
H    -2.287000000    -0.794000000    -0.185000000
C    -0.298000000    -1.344000000     0.474000000
H    -0.648000000    -2.293000000     0.871000000
C     0.998000000    -0.943000000     0.692000000
C     1.982000000    -1.727000000     1.509000000
O     3.188000000    -1.576000000     1.345000000
O     1.609000000    -2.722000000     2.132000000
O     4.857000000    -2.710000000     3.073000000
H     4.256000000    -2.386000000     2.402000000
H     4.315000000    -3.270000000     3.629000000
O    -5.139000000     1.150000000    -3.676000000
H    -5.772000000     1.369000000    -2.993000000
H    -4.644000000     1.958000000    -3.812000000
O    -4.561000000    -2.693000000    -0.519000000
H    -5.417000000    -2.298000000    -0.354000000
H    -4.576000000    -3.512000000    -0.024000000
O    -2.884000000    -6.679000000    -1.149000000
H    -2.474000000    -7.362000000    -0.618000000
H    -2.277000000    -5.941000000    -1.099000000
O    -2.078000000     7.394000000    -2.722000000
H    -1.372000000     7.189000000    -3.335000000
H    -2.652000000     6.629000000    -2.752000000
O     0.521000000     2.714000000    -5.145000000
H     0.396000000     1.808000000    -4.862000000
H    -0.179000000     2.865000000    -5.780000000
O     7.432000000    -0.961000000     0.170000000
H     7.985000000    -0.973000000    -0.611000000
H     7.536000000    -1.833000000     0.550000000
O    -0.702000000     4.254000000    -2.332000000
H     0.111000000     4.679000000    -2.605000000
H    -1.087000000     4.859000000    -1.697000000
O    -0.074000000    -5.288000000    -3.213000000
H    -0.755000000    -4.710000000    -2.869000000
H     0.627000000    -4.697000000    -3.487000000
O    -4.282000000    -2.580000000    -3.310000000
H    -4.632000000    -2.150000000    -2.530000000
H    -4.402000000    -3.515000000    -3.142000000
O     5.341000000    -1.051000000    -3.271000000
H     4.772000000    -1.324000000    -2.551000000
H     5.964000000    -0.447000000    -2.868000000
O     3.984000000    -7.533000000     2.088000000
H     3.211000000    -8.050000000     1.861000000
H     3.840000000    -6.688000000     1.662000000
O     0.260000000    -5.047000000     1.508000000
H    -0.371000000    -4.968000000     2.224000000
H     0.843000000    -4.296000000     1.620000000
O     0.411000000    -5.766000000     5.374000000
H    -0.450000000    -5.929000000     5.759000000
H     0.725000000    -6.632000000     5.113000000
O    -4.099000000     3.290000000     3.143000000
H    -4.707000000     2.715000000     2.677000000
H    -3.844000000     2.790000000     3.918000000
O    -5.681000000     2.135000000     1.230000000
H    -5.999000000     1.376000000     1.718000000
H    -6.112000000     2.070000000     0.377000000
O    -1.236000000     5.789000000    -0.206000000
H    -1.233000000     5.378000000     0.658000000
H    -1.992000000     6.375000000    -0.190000000
O     4.049000000     2.702000000    -0.860000000
H     3.096000000     2.649000000    -0.788000000
H     4.359000000     1.843000000    -0.574000000
O    -1.797000000    -1.967000000    -4.577000000
H    -1.258000000    -2.102000000    -3.798000000
H    -2.650000000    -2.334000000    -4.344000000
O    -4.015000000     3.841000000    -6.065000000
H    -3.605000000     3.380000000    -5.333000000
H    -4.611000000     3.198000000    -6.449000000
O     0.417000000    -0.978000000    -2.801000000
H     0.443000000    -0.306000000    -3.482000000
H     0.370000000    -0.487000000    -1.981000000
O    -5.142000000    -0.545000000    -5.880000000
H    -5.220000000    -0.102000000    -5.035000000
H    -5.550000000    -1.400000000    -5.741000000
O     0.021000000     2.360000000     4.443000000
H    -0.479000000     2.096000000     3.670000000
H     0.934000000     2.203000000     4.202000000
O     2.504000000    -3.846000000     5.919000000
H     1.964000000    -3.163000000     5.521000000
H     1.981000000    -4.643000000     5.836000000
O     5.149000000     3.111000000    -3.410000000
H     5.794000000     2.521000000    -3.019000000
H     4.558000000     3.331000000    -2.690000000
O    -1.690000000    -3.460000000    -1.529000000
H    -2.453000000    -3.209000000    -1.008000000
H    -0.989000000    -2.886000000    -1.221000000
O    -4.045000000     5.198000000    -2.714000000
H    -4.719000000     4.681000000    -3.156000000
H    -3.912000000     4.753000000    -1.877000000
O    -1.429000000     4.750000000     2.248000000
H    -1.389000000     3.872000000     2.627000000
H    -2.305000000     5.066000000     2.469000000
O    -1.443000000     1.983000000     2.122000000
H    -0.954000000     1.797000000     1.320000000
H    -1.897000000     1.164000000     2.322000000
O    -1.657000000     5.202000000    -5.578000000
H    -2.467000000     5.122000000    -6.082000000
H    -1.769000000     4.594000000    -4.847000000
O     5.389000000     2.383000000     2.018000000
H     5.378000000     1.789000000     2.769000000
H     5.283000000     1.810000000     1.258000000
O    -0.211000000    -3.119000000     4.093000000
H     0.077000000    -4.029000000     4.015000000
H     0.348000000    -2.638000000     3.483000000
O    -3.531000000    -0.307000000     2.772000000
H    -3.344000000    -1.236000000     2.636000000
H    -4.380000000    -0.170000000     2.351000000
O     4.843000000     0.790000000     4.465000000
H     4.616000000    -0.045000000     4.055000000
H     4.830000000     0.608000000     5.404000000
O    -6.852000000     3.235000000    -1.252000000
H    -7.609000000     3.812000000    -1.346000000
H    -7.228000000     2.370000000    -1.089000000
O    -2.423000000     3.018000000    -3.997000000
H    -1.819000000     3.399000000    -3.361000000
H    -1.941000000     2.281000000    -4.374000000
O     1.466000000    -7.380000000     0.866000000
H     1.185000000    -7.629000000    -0.015000000
H     1.066000000    -6.522000000     1.011000000
O     4.571000000    -3.133000000    -0.350000000
H     4.001000000    -3.901000000    -0.398000000
H     4.126000000    -2.543000000     0.259000000
O    -1.280000000     0.552000000    -4.972000000
H    -1.552000000    -0.317000000    -4.678000000
H    -1.716000000     0.667000000    -5.817000000
O     1.623000000    -3.292000000    -4.156000000
H     1.347000000    -2.527000000    -3.650000000
H     2.044000000    -2.925000000    -4.933000000
O     2.778000000     2.537000000     4.171000000
H     2.874000000     3.348000000     3.672000000
H     3.676000000     2.249000000     4.335000000
O    -1.824000000    -6.041000000     3.317000000
H    -1.689000000    -6.519000000     4.135000000
H    -2.732000000    -6.228000000     3.077000000
O     5.097000000    -4.471000000    -2.735000000
H     5.095000000    -3.798000000    -2.054000000
H     5.074000000    -3.982000000    -3.557000000
O     2.181000000    -4.550000000    -1.256000000
H     1.287000000    -4.523000000    -0.915000000
H     2.094000000    -4.935000000    -2.128000000
O     4.878000000     0.098000000     0.465000000
H     5.712000000    -0.355000000     0.343000000
H     4.298000000    -0.565000000     0.838000000
O     7.374000000    -3.030000000     2.156000000
H     6.534000000    -2.720000000     2.494000000
H     7.966000000    -2.982000000     2.907000000
O    -4.500000000     4.359000000    -0.143000000
H    -4.681000000     4.268000000     0.793000000
H    -5.229000000     3.912000000    -0.572000000
O    -2.989000000    -2.735000000     4.226000000
H    -2.115000000    -3.036000000     3.978000000
H    -2.989000000    -2.760000000     5.183000000
