158
-3019.06083
C     1.238000000     0.329000000     0.797000000
H     2.054000000     0.640000000     1.445000000
C     0.572000000     1.214000000    -0.103000000
H     0.843000000     2.257000000    -0.246000000
C    -0.493000000     0.726000000    -0.933000000
H    -0.883000000     1.433000000    -1.656000000
C    -0.961000000    -0.539000000    -0.661000000
H    -1.870000000    -0.872000000    -1.156000000
C    -0.364000000    -1.420000000     0.302000000
H    -0.710000000    -2.428000000     0.517000000
C     0.748000000    -0.985000000     1.038000000
C     1.413000000    -1.862000000     2.051000000
O     2.474000000    -1.474000000     2.505000000
O     0.787000000    -2.764000000     2.523000000
O     4.300000000     0.431000000     7.338000000
H     3.769000000     0.182000000     6.582000000
H     4.422000000    -0.385000000     7.824000000
O     3.719000000    -3.875000000     2.475000000
H     4.527000000    -3.580000000     2.895000000
H     3.042000000    -3.294000000     2.820000000
O    -5.687000000     0.086000000    -4.020000000
H    -6.602000000     0.339000000    -3.898000000
H    -5.516000000    -0.542000000    -3.318000000
O    -4.736000000    -2.359000000     2.952000000
H    -4.248000000    -1.552000000     2.790000000
H    -5.510000000    -2.288000000     2.393000000
O     2.425000000     4.420000000     2.809000000
H     2.269000000     4.027000000     1.951000000
H     3.285000000     4.832000000     2.731000000
O     0.474000000     4.691000000    -2.558000000
H     1.076000000     3.947000000    -2.551000000
H    -0.268000000     4.393000000    -3.085000000
O     5.998000000    -3.179000000     3.637000000
H     6.838000000    -3.115000000     3.183000000
H     5.952000000    -4.089000000     3.929000000
O     2.451000000     4.671000000    -0.203000000
H     1.902000000     4.741000000    -0.984000000
H     2.793000000     3.778000000    -0.228000000
O    -1.603000000     3.579000000    -3.609000000
H    -2.194000000     3.890000000    -4.295000000
H    -2.054000000     3.787000000    -2.791000000
O     2.238000000     0.144000000    -3.822000000
H     2.243000000     0.134000000    -4.779000000
H     1.613000000    -0.539000000    -3.578000000
O     2.413000000     2.678000000    -2.636000000
H     2.442000000     1.836000000    -3.090000000
H     2.864000000     2.519000000    -1.806000000
O    -5.095000000     3.868000000    -3.967000000
H    -5.987000000     3.711000000    -3.657000000
H    -4.775000000     3.004000000    -4.225000000
O    -3.003000000    -1.990000000    -5.005000000
H    -3.894000000    -2.329000000    -4.917000000
H    -3.112000000    -1.040000000    -5.054000000
O     1.750000000     7.026000000     0.722000000
H     1.417000000     6.847000000     1.601000000
H     2.174000000     6.210000000     0.456000000
O    -0.237000000    -5.417000000     2.472000000
H     0.265000000    -5.741000000     3.220000000
H    -0.117000000    -4.468000000     2.495000000
O     1.990000000    -5.660000000     4.150000000
H     2.209000000    -5.464000000     3.239000000
H     2.091000000    -6.609000000     4.222000000
O    -4.654000000     2.658000000     1.303000000
H    -5.260000000     1.923000000     1.398000000
H    -3.793000000     2.284000000     1.490000000
O    -2.357000000     6.126000000    -1.505000000
H    -3.286000000     5.949000000    -1.353000000
H    -1.980000000     5.269000000    -1.704000000
O     3.896000000     2.390000000    -0.174000000
H     4.733000000     2.774000000    -0.435000000
H     4.111000000     1.835000000     0.575000000
O    -3.796000000     1.081000000    -5.685000000
H    -4.217000000     1.167000000    -6.541000000
H    -4.504000000     0.829000000    -5.093000000
O     0.952000000    -2.368000000    -3.191000000
H     0.217000000    -2.974000000    -3.286000000
H     1.562000000    -2.820000000    -2.608000000
O     2.338000000    -2.397000000     5.315000000
H     2.073000000    -2.554000000     4.408000000
H     1.759000000    -2.954000000     5.834000000
O     4.725000000     0.141000000    -2.333000000
H     4.350000000     0.021000000    -1.460000000
H     3.966000000     0.238000000    -2.908000000
O    -2.622000000    -3.272000000     5.794000000
H    -2.097000000    -2.919000000     5.075000000
H    -3.458000000    -3.500000000     5.389000000
O    -1.341000000     2.973000000     3.595000000
H    -2.115000000     3.240000000     4.090000000
H    -1.098000000     3.751000000     3.093000000
O     5.067000000    -1.929000000     6.085000000
H     5.633000000    -2.281000000     5.397000000
H     4.191000000    -1.930000000     5.698000000
O    -4.596000000    -5.379000000     0.227000000
H    -4.874000000    -4.937000000    -0.574000000
H    -3.663000000    -5.548000000     0.096000000
O    -1.844000000     4.968000000     1.412000000
H    -2.440000000     4.285000000     1.104000000
H    -2.318000000     5.394000000     2.127000000
O    -2.292000000     1.505000000     1.412000000
H    -1.660000000     0.954000000     0.949000000
H    -1.868000000     1.707000000     2.246000000
O    -1.598000000    -1.731000000     3.655000000
H    -1.778000000    -1.892000000     2.729000000
H    -0.646000000    -1.801000000     3.730000000
O     3.140000000     0.247000000     4.582000000
H     2.951000000    -0.469000000     3.975000000
H     2.296000000     0.678000000     4.714000000
O    -4.804000000    -1.293000000    -1.451000000
H    -5.307000000    -2.048000000    -1.759000000
H    -5.069000000    -1.186000000    -0.537000000
O     0.657000000     7.746000000    -1.440000000
H     1.129000000     7.546000000    -0.631000000
H     0.151000000     6.955000000    -1.624000000
O    -1.219000000     1.753000000    -5.639000000
H    -2.147000000     1.538000000    -5.544000000
H    -1.013000000     2.272000000    -4.861000000
O     0.993000000    -5.028000000    -1.536000000
H     1.433000000    -5.875000000    -1.464000000
H     1.482000000    -4.452000000    -0.949000000
O     2.708000000    -3.463000000    -0.078000000
H     3.181000000    -3.283000000     0.735000000
H     3.350000000    -3.300000000    -0.769000000
O     0.822000000    -0.057000000    -6.198000000
H     0.192000000     0.630000000    -5.985000000
H     0.285000000    -0.793000000    -6.492000000
O    -6.679000000     3.070000000    -1.502000000
H    -7.587000000     3.210000000    -1.233000000
H    -6.334000000     2.444000000    -0.865000000
O     6.901000000     0.075000000     3.347000000
H     5.993000000     0.057000000     3.044000000
H     6.836000000     0.055000000     4.302000000
O    -1.605000000    -5.840000000     0.052000000
H    -1.187000000    -5.804000000     0.912000000
H    -0.962000000    -5.453000000    -0.543000000
O     5.175000000     2.021000000     4.616000000
H     4.601000000     1.267000000     4.747000000
H     4.587000000     2.776000000     4.630000000
O     3.007000000     4.937000000    -4.136000000
H     2.740000000     5.797000000    -3.813000000
H     2.773000000     4.333000000    -3.431000000
O     0.525000000    -4.148000000     6.300000000
H    -0.187000000    -4.724000000     6.580000000
H     0.738000000    -4.444000000     5.415000000
O     4.403000000    -6.121000000     1.120000000
H     5.263000000    -6.421000000     1.416000000
H     4.313000000    -5.245000000     1.495000000
O    -1.992000000     5.228000000    -5.988000000
H    -1.069000000     5.062000000    -5.796000000
H    -2.229000000     5.958000000    -5.416000000
O     4.412000000     0.062000000     1.273000000
H     3.845000000    -0.580000000     1.701000000
H     5.218000000    -0.419000000     1.084000000
O    -3.338000000     3.380000000    -1.368000000
H    -4.203000000     3.756000000    -1.530000000
H    -3.511000000     2.598000000    -0.843000000
O     0.500000000     1.168000000     5.025000000
H     0.060000000     1.469000000     4.231000000
H    -0.053000000     0.458000000     5.351000000
