158
-3065.26340
C     1.268000000     0.129000000    -0.796000000
H     2.231000000     0.073000000    -1.297000000
C     1.079000000    -0.758000000     0.277000000
H     1.922000000    -1.346000000     0.632000000
C    -0.134000000    -0.765000000     0.903000000
H    -0.281000000    -1.334000000     1.815000000
C    -1.159000000     0.062000000     0.452000000
H    -2.091000000     0.027000000     1.011000000
C    -0.970000000     1.012000000    -0.508000000
H    -1.868000000     1.530000000    -0.835000000
C     0.250000000     1.090000000    -1.137000000
C     0.281000000     1.855000000    -2.426000000
O    -0.557000000     2.666000000    -2.584000000
O     1.270000000     1.747000000    -3.161000000
O    -3.714000000     2.612000000    -5.364000000
H    -2.784000000     2.424000000    -5.488000000
H    -3.853000000     3.444000000    -5.816000000
O    -2.416000000    -1.621000000     3.196000000
H    -1.920000000    -2.349000000     3.571000000
H    -3.038000000    -2.038000000     2.599000000
O    -0.793000000     0.279000000    -7.300000000
H    -0.809000000     1.020000000    -6.694000000
H    -0.884000000    -0.491000000    -6.739000000
O    -1.199000000     6.128000000    -5.108000000
H    -0.994000000     6.448000000    -5.986000000
H    -0.346000000     6.015000000    -4.688000000
O     3.199000000    -4.277000000     4.436000000
H     3.593000000    -3.432000000     4.654000000
H     3.284000000    -4.343000000     3.485000000
O    -0.881000000    -3.768000000     4.201000000
H    -0.542000000    -4.600000000     3.872000000
H    -0.194000000    -3.442000000     4.782000000
O     2.051000000     1.778000000     4.977000000
H     2.028000000     1.250000000     4.180000000
H     1.389000000     1.384000000     5.545000000
O    -4.108000000    -2.689000000     1.056000000
H    -4.660000000    -3.457000000     1.205000000
H    -3.899000000    -2.720000000     0.123000000
O     0.113000000     5.566000000     1.030000000
H     0.411000000     4.728000000     1.384000000
H    -0.827000000     5.582000000     1.210000000
O    -0.932000000     2.200000000    -5.456000000
H    -0.275000000     2.614000000    -6.016000000
H    -0.627000000     2.368000000    -4.565000000
O     1.487000000    -6.201000000     4.741000000
H     1.913000000    -5.351000000     4.846000000
H     0.643000000    -5.998000000     4.338000000
O     0.887000000    -2.948000000     5.912000000
H     1.738000000    -2.619000000     5.622000000
H     1.098000000    -3.609000000     6.571000000
O    -2.602000000     4.821000000     0.790000000
H    -2.678000000     4.077000000     1.387000000
H    -3.506000000     5.047000000     0.571000000
O    -6.663000000    -1.261000000    -0.978000000
H    -7.195000000    -0.872000000    -1.672000000
H    -5.786000000    -0.903000000    -1.120000000
O    -4.279000000    -0.455000000    -2.102000000
H    -3.847000000     0.306000000    -1.716000000
H    -4.423000000    -0.211000000    -3.016000000
O    -1.163000000    -6.460000000     3.646000000
H    -0.647000000    -6.618000000     2.855000000
H    -1.784000000    -7.187000000     3.676000000
O    -5.370000000     3.689000000    -2.218000000
H    -5.286000000     4.560000000    -2.607000000
H    -4.555000000     3.244000000    -2.450000000
O     0.582000000     2.599000000     1.612000000
H    -0.083000000     1.935000000     1.797000000
H     1.312000000     2.373000000     2.188000000
O     4.652000000    -1.928000000     2.160000000
H     5.304000000    -2.228000000     2.793000000
H     5.059000000    -1.171000000     1.738000000
O     3.401000000    -1.471000000    -3.439000000
H     3.021000000    -1.312000000    -4.303000000
H     3.553000000    -0.596000000    -3.081000000
O    -6.615000000     0.976000000     2.228000000
H    -6.467000000     0.500000000     1.411000000
H    -5.802000000     0.865000000     2.721000000
O     0.378000000    -0.128000000     6.082000000
H    -0.006000000    -0.212000000     6.955000000
H     0.461000000    -1.028000000     5.769000000
O     6.111000000    -0.593000000    -3.392000000
H     5.329000000    -0.044000000    -3.449000000
H     6.152000000    -1.041000000    -4.237000000
O     5.177000000     3.170000000    -2.118000000
H     4.707000000     3.161000000    -1.285000000
H     6.101000000     3.211000000    -1.871000000
O     5.423000000     0.465000000     1.009000000
H     5.058000000     1.350000000     1.020000000
H     6.116000000     0.500000000     0.349000000
O    -0.525000000    -2.478000000    -1.853000000
H    -0.464000000    -1.879000000    -1.109000000
H     0.382000000    -2.728000000    -2.033000000
O    -3.446000000    -4.302000000     5.686000000
H    -2.958000000    -4.294000000     4.863000000
H    -2.798000000    -4.071000000     6.351000000
O     4.700000000    -4.640000000    -0.670000000
H     5.019000000    -5.340000000    -1.241000000
H     5.264000000    -3.893000000    -0.870000000
O    -3.096000000     2.234000000    -2.916000000
H    -2.209000000     2.579000000    -3.018000000
H    -3.453000000     2.224000000    -3.804000000
O    -3.069000000     3.010000000     2.819000000
H    -3.703000000     3.116000000     3.529000000
H    -2.626000000     2.184000000     3.016000000
O     6.354000000    -2.574000000    -1.402000000
H     6.937000000    -3.176000000    -1.864000000
H     6.088000000    -1.941000000    -2.069000000
O     2.730000000     0.495000000     2.780000000
H     2.551000000    -0.050000000     2.014000000
H     3.396000000     1.114000000     2.484000000
O    -1.327000000     5.077000000    -1.807000000
H    -0.945000000     4.248000000    -2.097000000
H    -1.622000000     4.904000000    -0.913000000
O     2.105000000     0.542000000    -5.863000000
H     2.004000000     0.941000000    -4.998000000
H     1.273000000     0.096000000    -6.020000000
O    -3.896000000    -3.251000000    -1.734000000
H    -4.503000000    -3.460000000    -2.444000000
H    -3.616000000    -2.354000000    -1.915000000
O     2.267000000     4.605000000    -3.662000000
H     1.609000000     3.926000000    -3.813000000
H     2.337000000     5.060000000    -4.501000000
O    -1.826000000    -4.738000000    -1.095000000
H    -1.228000000    -4.043000000    -1.368000000
H    -2.696000000    -4.345000000    -1.158000000
O     3.978000000     2.621000000     1.639000000
H     3.487000000     2.905000000     0.868000000
H     3.972000000     3.380000000     2.221000000
O     0.161000000    -1.566000000    -5.306000000
H     0.442000000    -2.459000000    -5.505000000
H    -0.246000000    -1.631000000    -4.442000000
O     0.847000000    -5.771000000     2.014000000
H     1.537000000    -5.111000000     1.942000000
H     0.689000000    -6.051000000     1.112000000
O     4.009000000     1.087000000    -3.084000000
H     3.094000000     1.366000000    -3.114000000
H     4.482000000     1.851000000    -2.755000000
O    -4.483000000    -0.025000000     3.771000000
H    -3.747000000    -0.622000000     3.643000000
H    -4.575000000     0.042000000     4.722000000
O     2.404000000    -3.329000000    -1.812000000
H     3.118000000    -3.748000000    -1.332000000
H     2.839000000    -2.700000000    -2.388000000
O     1.197000000     4.741000000    -6.304000000
H     2.061000000     4.437000000    -6.581000000
H     0.616000000     4.503000000    -7.027000000
O     3.217000000    -1.554000000     4.822000000
H     2.903000000    -1.296000000     3.955000000
H     3.911000000    -0.927000000     5.022000000
O     2.584000000     3.228000000    -0.415000000
H     1.790000000     2.786000000    -0.113000000
H     2.303000000     3.728000000    -1.181000000
O    -1.150000000     0.966000000     3.602000000
H    -0.977000000     0.785000000     4.526000000
H    -1.455000000     0.131000000     3.248000000
O     3.126000000    -4.237000000     1.622000000
H     3.472000000    -4.573000000     0.795000000
H     3.674000000    -3.477000000     1.819000000
