158
-3059.71176
C     1.415000000     0.217000000     0.018000000
H     2.459000000     0.501000000     0.126000000
C     0.485000000     1.136000000    -0.312000000
H     0.798000000     2.131000000    -0.616000000
C    -0.859000000     0.810000000    -0.302000000
H    -1.539000000     1.628000000    -0.575000000
C    -1.245000000    -0.485000000    -0.005000000
H    -2.315000000    -0.673000000     0.008000000
C    -0.308000000    -1.447000000     0.244000000
H    -0.584000000    -2.484000000     0.415000000
C     1.011000000    -1.056000000     0.330000000
C     2.096000000    -2.149000000     0.606000000
O     3.286000000    -2.011000000     0.416000000
O     1.665000000    -3.248000000     0.997000000
O     3.533000000     3.297000000     4.325000000
H     2.868000000     2.618000000     4.437000000
H     3.936000000     3.101000000     3.479000000
O     5.765000000    -3.339000000    -0.144000000
H     4.861000000    -3.052000000    -0.010000000
H     6.217000000    -3.087000000     0.661000000
O    -0.401000000     4.899000000     4.429000000
H    -0.872000000     4.325000000     5.034000000
H    -0.183000000     4.337000000     3.686000000
O     1.133000000     3.748000000    -2.568000000
H     1.655000000     3.930000000    -1.787000000
H     0.305000000     4.204000000    -2.414000000
O     5.045000000     2.242000000     2.355000000
H     5.802000000     1.906000000     2.836000000
H     4.704000000     1.482000000     1.884000000
O     5.121000000    -2.696000000    -2.751000000
H     5.948000000    -2.564000000    -3.214000000
H     5.371000000    -2.778000000    -1.831000000
O    -2.033000000     1.824000000    -6.149000000
H    -1.091000000     1.916000000    -6.295000000
H    -2.208000000     2.354000000    -5.372000000
O     4.309000000     0.434000000    -4.336000000
H     4.697000000     0.747000000    -5.153000000
H     3.585000000     1.037000000    -4.167000000
O     2.384000000     4.500000000    -0.039000000
H     3.305000000     4.454000000    -0.294000000
H     2.402000000     4.539000000     0.918000000
O    -2.452000000     2.698000000    -3.570000000
H    -2.102000000     2.983000000    -2.726000000
H    -3.401000000     2.689000000    -3.446000000
O     1.619000000     1.854000000    -4.236000000
H     1.057000000     1.086000000    -4.137000000
H     1.367000000     2.430000000    -3.515000000
O     6.593000000     0.845000000    -0.364000000
H     6.344000000     0.472000000     0.482000000
H     5.831000000     0.700000000    -0.923000000
O    -0.196000000    -5.347000000     0.714000000
H    -0.091000000    -5.633000000     1.621000000
H     0.338000000    -4.555000000     0.649000000
O     0.531000000    -7.809000000     0.033000000
H     0.584000000    -8.077000000     0.950000000
H     0.280000000    -6.886000000     0.068000000
O    -3.609000000    -4.072000000     3.780000000
H    -3.310000000    -4.337000000     2.911000000
H    -3.616000000    -4.883000000     4.289000000
O    -5.369000000    -3.191000000     0.594000000
H    -5.673000000    -4.093000000     0.693000000
H    -4.850000000    -3.200000000    -0.210000000
O     0.509000000    -0.316000000    -2.895000000
H     1.224000000    -0.916000000    -2.681000000
H     0.136000000    -0.076000000    -2.047000000
O    -3.095000000    -0.730000000    -3.631000000
H    -2.333000000    -0.184000000    -3.437000000
H    -3.739000000    -0.487000000    -2.967000000
O    -2.927000000     6.620000000     1.568000000
H    -2.582000000     7.175000000     2.268000000
H    -2.169000000     6.123000000     1.262000000
O     4.470000000    -3.074000000     2.826000000
H     3.781000000    -2.808000000     2.217000000
H     4.116000000    -2.873000000     3.692000000
O    -3.088000000     3.170000000     1.647000000
H    -2.173000000     2.976000000     1.853000000
H    -3.562000000     2.971000000     2.454000000
O    -3.717000000    -3.649000000    -1.673000000
H    -2.844000000    -3.867000000    -2.001000000
H    -4.266000000    -3.619000000    -2.457000000
O    -5.137000000     2.924000000    -3.138000000
H    -5.543000000     3.222000000    -2.324000000
H    -4.927000000     2.004000000    -2.978000000
O    -0.158000000     5.977000000     1.411000000
H     0.438000000     5.228000000     1.372000000
H    -0.132000000     6.256000000     2.326000000
O    -2.041000000     0.713000000     3.810000000
H    -1.171000000     0.392000000     3.575000000
H    -2.621000000    -0.034000000     3.658000000
O     4.794000000     4.013000000    -1.694000000
H     4.450000000     4.428000000    -2.485000000
H     4.273000000     3.216000000    -1.595000000
O    -0.937000000    -4.440000000    -2.198000000
H    -0.840000000    -5.229000000    -2.731000000
H    -0.177000000    -4.448000000    -1.617000000
O    -3.978000000    -1.190000000     3.531000000
H    -4.399000000    -0.896000000     4.338000000
H    -3.723000000    -2.096000000     3.709000000
O    -2.957000000     3.977000000    -0.976000000
H    -3.790000000     4.402000000    -1.181000000
H    -2.966000000     3.878000000    -0.024000000
O     0.030000000    -1.041000000     4.284000000
H    -0.444000000    -1.185000000     5.103000000
H     0.030000000    -1.896000000     3.854000000
O    -6.725000000     2.079000000     0.331000000
H    -6.197000000     1.819000000     1.086000000
H    -7.393000000     1.397000000     0.260000000
O    -0.730000000     6.727000000    -3.993000000
H    -0.656000000     6.417000000    -3.091000000
H    -0.393000000     6.004000000    -4.523000000
O     4.356000000     0.173000000    -1.566000000
H     3.827000000    -0.622000000    -1.500000000
H     4.645000000     0.194000000    -2.478000000
O    -5.229000000     5.200000000     2.145000000
H    -4.635000000     5.907000000     1.893000000
H    -4.847000000     4.416000000     1.752000000
O     3.097000000    -6.060000000     0.886000000
H     3.238000000    -5.439000000     0.172000000
H     2.211000000    -5.872000000     1.196000000
O    -2.804000000    -5.334000000     1.089000000
H    -1.860000000    -5.399000000     0.939000000
H    -3.106000000    -4.699000000     0.440000000
O     6.961000000    -2.505000000     2.974000000
H     7.527000000    -2.891000000     3.642000000
H     6.109000000    -2.918000000     3.114000000
O    -5.276000000    -0.485000000     1.272000000
H    -4.663000000    -0.338000000     1.992000000
H    -5.159000000    -1.407000000     1.042000000
O     1.794000000    -4.373000000    -1.348000000
H     1.911000000    -4.116000000    -0.434000000
H     2.273000000    -3.712000000    -1.847000000
O    -0.645000000     5.861000000    -1.422000000
H    -0.437000000     6.016000000    -0.500000000
H    -1.558000000     5.573000000    -1.416000000
O    -5.103000000     0.481000000    -2.060000000
H    -5.301000000     0.627000000    -1.135000000
H    -5.748000000    -0.166000000    -2.344000000
O     0.744000000    -3.480000000     3.558000000
H     1.605000000    -3.547000000     3.971000000
H     0.922000000    -3.558000000     2.621000000
O     5.048000000    -0.421000000     1.730000000
H     4.452000000    -0.996000000     1.250000000
H     5.661000000    -1.016000000     2.160000000
O     0.264000000     2.798000000     2.198000000
H     0.493000000     2.237000000     1.456000000
H     0.446000000     2.261000000     2.969000000
O     2.679000000    -1.969000000    -2.798000000
H     3.518000000    -2.421000000    -2.706000000
H     2.582000000    -1.834000000    -3.741000000
O     5.260000000    -5.599000000     2.497000000
H     4.477000000    -5.688000000     1.954000000
H     5.322000000    -4.660000000     2.676000000
O    -4.489000000     2.710000000     3.903000000
H    -4.425000000     3.040000000     4.799000000
H    -5.421000000     2.771000000     3.691000000
O     1.168000000     1.438000000     4.353000000
H     0.875000000     1.713000000     5.221000000
H     0.981000000     0.499000000     4.323000000
