158
-3053.63639
C     1.365000000    -0.153000000     0.506000000
H     2.414000000    -0.294000000     0.753000000
C     0.875000000     1.009000000    -0.088000000
H     1.536000000     1.846000000    -0.298000000
C    -0.468000000     1.058000000    -0.507000000
H    -0.862000000     1.983000000    -1.134000000
C    -1.254000000    -0.086000000    -0.318000000
H    -2.209000000    -0.063000000    -0.838000000
C    -0.734000000    -1.252000000     0.310000000
H    -1.463000000    -2.058000000     0.315000000
C     0.615000000    -1.290000000     0.711000000
C     1.166000000    -2.515000000     1.412000000
O     2.351000000    -2.491000000     1.799000000
O     0.611000000    -3.588000000     1.240000000
O     3.931000000    -4.504000000     1.306000000
H     3.392000000    -3.755000000     1.559000000
H     4.552000000    -4.607000000     2.027000000
O     2.429000000     5.057000000    -0.138000000
H     3.347000000     4.791000000    -0.184000000
H     1.982000000     4.481000000    -0.758000000
O     3.868000000     2.548000000     3.308000000
H     3.342000000     2.555000000     4.108000000
H     3.613000000     1.742000000     2.861000000
O     6.342000000    -3.914000000     2.834000000
H     7.265000000    -3.660000000     2.810000000
H     6.094000000    -3.826000000     3.754000000
O     5.120000000    -1.856000000    -0.121000000
H     5.838000000    -1.825000000    -0.752000000
H     4.830000000    -2.768000000    -0.133000000
O    -2.792000000     2.596000000    -4.690000000
H    -2.043000000     2.011000000    -4.575000000
H    -3.557000000     2.036000000    -4.552000000
O    -1.487000000     6.046000000    -2.802000000
H    -2.066000000     5.661000000    -2.144000000
H    -1.489000000     5.414000000    -3.522000000
O     0.931000000     2.612000000    -5.732000000
H     0.241000000     1.974000000    -5.549000000
H     1.629000000     2.099000000    -6.141000000
O    -5.331000000     1.206000000    -4.155000000
H    -5.128000000     0.360000000    -3.756000000
H    -5.825000000     1.675000000    -3.483000000
O     1.674000000    -3.646000000    -3.605000000
H     2.297000000    -2.936000000    -3.759000000
H     1.942000000    -4.023000000    -2.767000000
O     5.546000000     1.382000000     0.110000000
H     5.185000000     1.974000000    -0.550000000
H     5.098000000     0.550000000    -0.043000000
O     0.880000000     7.500000000    -2.679000000
H     0.617000000     8.045000000    -1.938000000
H     0.167000000     6.868000000    -2.777000000
O    -0.828000000    -5.245000000    -0.420000000
H    -1.180000000    -6.025000000     0.010000000
H    -0.612000000    -4.653000000     0.300000000
O    -4.663000000    -3.733000000     0.260000000
H    -4.191000000    -4.107000000     1.004000000
H    -4.325000000    -2.841000000     0.186000000
O     3.539000000    -2.360000000     6.005000000
H     2.602000000    -2.540000000     6.086000000
H     3.602000000    -1.405000000     6.028000000
O    -3.053000000    -0.635000000    -5.116000000
H    -3.010000000    -1.050000000    -5.978000000
H    -3.540000000    -1.257000000    -4.576000000
O    -4.828000000    -1.020000000    -1.173000000
H    -4.303000000    -1.418000000    -1.868000000
H    -5.733000000    -1.217000000    -1.415000000
O     2.023000000    -4.741000000     3.779000000
H     1.789000000    -4.180000000     3.039000000
H     1.803000000    -4.222000000     4.552000000
O    -1.451000000     4.676000000     3.168000000
H    -1.385000000     3.721000000     3.176000000
H    -0.611000000     4.971000000     2.816000000
O    -1.825000000    -2.506000000     5.218000000
H    -1.660000000    -3.251000000     4.640000000
H    -2.726000000    -2.631000000     5.518000000
O    -0.265000000     5.009000000    -5.529000000
H     0.122000000     4.152000000    -5.709000000
H    -0.549000000     5.329000000    -6.385000000
O    -4.683000000     0.585000000     1.057000000
H    -4.606000000     1.511000000     0.830000000
H    -4.666000000     0.129000000     0.215000000
O    -3.644000000    -2.371000000    -3.174000000
H    -2.818000000    -2.787000000    -2.929000000
H    -4.209000000    -3.097000000    -3.438000000
O    -6.384000000     2.771000000    -1.946000000
H    -5.984000000     3.263000000    -1.229000000
H    -6.882000000     2.078000000    -1.512000000
O    -2.329000000     4.684000000    -0.298000000
H    -1.790000000     4.805000000     0.484000000
H    -2.907000000     5.447000000    -0.310000000
O    -2.010000000     1.282000000     2.207000000
H    -1.977000000     0.660000000     1.480000000
H    -2.943000000     1.455000000     2.332000000
O     4.216000000     2.547000000    -2.017000000
H     4.684000000     2.520000000    -2.852000000
H     3.391000000     2.988000000    -2.219000000
O    -1.185000000    -3.621000000    -2.683000000
H    -0.264000000    -3.673000000    -2.935000000
H    -1.182000000    -3.753000000    -1.735000000
O    -3.626000000    -4.678000000     2.657000000
H    -2.714000000    -4.531000000     2.907000000
H    -3.945000000    -5.327000000     3.285000000
O     2.668000000    -0.278000000     3.496000000
H     2.688000000    -1.083000000     2.979000000
H     1.933000000     0.219000000     3.136000000
O    -4.672000000     3.327000000     0.463000000
H    -4.895000000     4.021000000     1.084000000
H    -3.752000000     3.480000000     0.252000000
O     0.825000000    -3.023000000     5.552000000
H     0.546000000    -3.543000000     6.305000000
H     0.044000000    -2.533000000     5.296000000
O    -3.247000000     5.083000000    -5.183000000
H    -2.652000000     5.405000000    -5.860000000
H    -2.959000000     4.185000000    -5.019000000
O     1.171000000    -0.494000000    -3.090000000
H     1.062000000    -0.627000000    -2.148000000
H     2.097000000    -0.674000000    -3.251000000
O    -5.001000000     5.846000000    -1.112000000
H    -5.233000000     6.272000000    -1.937000000
H    -5.842000000     5.659000000    -0.694000000
O     2.429000000    -4.482000000    -0.837000000
H     1.696000000    -4.179000000    -0.302000000
H     3.191000000    -4.408000000    -0.263000000
O    -3.711000000    -6.194000000    -1.182000000
H    -2.796000000    -5.940000000    -1.307000000
H    -4.093000000    -5.472000000    -0.683000000
O     5.567000000     0.122000000     5.015000000
H     4.752000000     0.475000000     5.373000000
H     5.398000000     0.035000000     4.076000000
O    -0.499000000    -6.884000000     4.216000000
H    -1.238000000    -7.485000000     4.128000000
H     0.255000000    -7.384000000     3.904000000
O     1.873000000     3.937000000    -2.611000000
H     2.368000000     4.624000000    -3.057000000
H     1.205000000     3.674000000    -3.243000000
O    -1.182000000    -4.297000000     3.279000000
H    -0.705000000    -5.076000000     3.565000000
H    -0.551000000    -3.810000000     2.750000000
O     2.389000000    -6.910000000    -2.092000000
H     2.268000000    -6.144000000    -1.530000000
H     1.564000000    -7.391000000    -2.023000000
O     5.535000000    -1.076000000     2.457000000
H     5.186000000    -1.283000000     1.590000000
H     5.161000000    -1.744000000     3.032000000
O     1.093000000     5.200000000     2.271000000
H     1.556000000     4.872000000     1.500000000
H     1.653000000     5.901000000     2.606000000
O    -0.798000000     0.746000000    -4.964000000
H    -1.625000000     0.274000000    -5.055000000
H    -0.380000000     0.353000000    -4.198000000
O     2.820000000    -6.947000000     2.011000000
H     2.115000000    -6.465000000     2.442000000
H     3.411000000    -6.268000000     1.685000000
O     0.467000000     1.267000000     3.325000000
H     0.080000000     1.537000000     4.158000000
H    -0.284000000     1.076000000     2.763000000
O     2.345000000     0.444000000     6.263000000
H     1.519000000     0.011000000     6.480000000
H     2.407000000     0.378000000     5.310000000
