158
-3056.79978
C     1.379000000    -0.144000000     0.289000000
H     2.443000000    -0.094000000     0.507000000
C     0.684000000     1.067000000     0.271000000
H     1.246000000     1.992000000     0.377000000
C    -0.651000000     1.040000000    -0.018000000
H    -1.182000000     2.040000000    -0.055000000
C    -1.331000000    -0.180000000    -0.273000000
H    -2.370000000    -0.239000000    -0.588000000
C    -0.647000000    -1.376000000    -0.184000000
H    -1.184000000    -2.300000000    -0.382000000
C     0.720000000    -1.395000000     0.072000000
C     1.512000000    -2.686000000     0.073000000
O     2.759000000    -2.691000000     0.033000000
O     0.969000000    -3.733000000     0.344000000
O     2.473000000     3.318000000     2.057000000
H     1.678000000     2.959000000     2.450000000
H     3.031000000     2.555000000     1.905000000
O     5.433000000    -2.161000000    -0.478000000
H     4.484000000    -2.280000000    -0.502000000
H     5.742000000    -2.823000000     0.140000000
O     3.711000000     5.910000000     0.771000000
H     2.938000000     5.360000000     0.897000000
H     3.537000000     6.692000000     1.293000000
O     0.940000000     5.263000000    -3.493000000
H     1.797000000     5.188000000    -3.072000000
H     0.413000000     5.769000000    -2.876000000
O     4.499000000     1.308000000     2.205000000
H     4.805000000     1.563000000     1.334000000
H     4.157000000     0.422000000     2.088000000
O     3.450000000     5.231000000    -2.074000000
H     3.840000000     4.378000000    -2.262000000
H     3.701000000     5.416000000    -1.169000000
O    -5.389000000     3.056000000    -3.005000000
H    -4.620000000     3.577000000    -2.774000000
H    -5.154000000     2.161000000    -2.762000000
O    -1.342000000     3.358000000    -2.741000000
H    -2.216000000     3.553000000    -2.402000000
H    -0.890000000     4.202000000    -2.737000000
O     5.743000000     0.615000000    -0.443000000
H     6.596000000     0.597000000    -0.009000000
H     5.444000000    -0.294000000    -0.420000000
O    -0.295000000    -5.657000000    -1.040000000
H    -0.138000000    -5.331000000    -1.926000000
H     0.180000000    -5.049000000    -0.473000000
O    -1.460000000    -8.069000000    -0.712000000
H    -1.327000000    -8.367000000    -1.612000000
H    -0.924000000    -7.280000000    -0.639000000
O    -4.840000000    -5.944000000     0.847000000
H    -4.282000000    -5.511000000     0.201000000
H    -4.355000000    -6.733000000     1.091000000
O     2.304000000    -2.788000000     4.510000000
H     2.032000000    -2.028000000     3.995000000
H     1.584000000    -2.930000000     5.125000000
O    -0.443000000     0.508000000    -3.167000000
H    -0.141000000     1.414000000    -3.224000000
H    -0.923000000     0.467000000    -2.340000000
O    -1.183000000    -2.045000000    -4.128000000
H    -1.437000000    -1.570000000    -4.919000000
H    -0.943000000    -1.359000000    -3.504000000
O    -3.268000000     6.334000000     1.347000000
H    -3.453000000     5.524000000     0.872000000
H    -2.825000000     6.048000000     2.146000000
O     3.051000000    -4.616000000     2.129000000
H     2.819000000    -4.062000000     1.383000000
H     2.607000000    -4.212000000     2.874000000
O    -3.087000000     1.995000000     1.863000000
H    -3.763000000     2.019000000     2.540000000
H    -2.319000000     1.631000000     2.304000000
O    -1.487000000    -4.641000000    -3.612000000
H    -1.403000000    -5.126000000    -4.434000000
H    -1.300000000    -3.733000000    -3.850000000
O     0.333000000     5.632000000     1.016000000
H    -0.039000000     5.055000000     1.683000000
H     0.615000000     6.407000000     1.501000000
O    -2.485000000    -1.444000000     4.874000000
H    -2.749000000    -1.661000000     3.980000000
H    -3.178000000    -1.811000000     5.424000000
O     4.120000000     2.319000000    -1.743000000
H     3.228000000     2.183000000    -1.421000000
H     4.635000000     1.633000000    -1.317000000
O    -4.317000000    -2.162000000    -0.071000000
H    -4.409000000    -2.102000000     0.880000000
H    -3.792000000    -2.950000000    -0.212000000
O    -3.513000000     4.948000000    -1.978000000
H    -3.953000000     5.769000000    -2.197000000
H    -3.924000000     4.667000000    -1.160000000
O     0.331000000    -8.090000000     1.805000000
H     1.111000000    -7.866000000     2.313000000
H     0.090000000    -7.275000000     1.365000000
O     0.077000000    -0.465000000     3.184000000
H     0.269000000    -0.589000000     2.254000000
H    -0.330000000    -1.287000000     3.457000000
O    -1.581000000     3.352000000    -5.422000000
H    -0.799000000     3.824000000    -5.707000000
H    -1.527000000     3.354000000    -4.466000000
O    -4.120000000     4.406000000     3.521000000
H    -4.316000000     4.558000000     4.446000000
H    -4.976000000     4.404000000     3.093000000
O    -4.539000000     3.880000000     0.337000000
H    -3.963000000     3.243000000     0.759000000
H    -5.417000000     3.510000000     0.433000000
O     2.825000000    -5.986000000    -0.824000000
H     2.225000000    -5.940000000    -1.568000000
H     2.730000000    -5.139000000    -0.387000000
O    -3.024000000    -4.881000000    -1.078000000
H    -2.184000000    -5.176000000    -0.727000000
H    -2.816000000    -4.551000000    -1.952000000
O    -5.097000000    -3.319000000    -3.082000000
H    -5.667000000    -3.405000000    -2.318000000
H    -5.228000000    -2.418000000    -3.378000000
O    -6.230000000    -0.550000000    -1.292000000
H    -6.946000000    -0.766000000    -0.694000000
H    -5.486000000    -1.056000000    -0.966000000
O     1.210000000    -6.123000000    -4.356000000
H     0.658000000    -6.053000000    -5.135000000
H     1.255000000    -5.230000000    -4.014000000
O    -0.617000000     6.001000000    -1.612000000
H    -0.366000000     5.917000000    -0.692000000
H    -1.530000000     6.287000000    -1.585000000
O     2.088000000    -1.797000000    -4.033000000
H     1.822000000    -0.880000000    -4.094000000
H     3.042000000    -1.776000000    -4.111000000
O    -5.870000000    -0.734000000    -4.050000000
H    -5.913000000    -0.462000000    -3.134000000
H    -6.640000000    -0.333000000    -4.455000000
O    -0.411000000    -3.359000000     2.563000000
H    -0.180000000    -4.103000000     3.120000000
H     0.125000000    -3.471000000     1.778000000
O     5.033000000    -5.656000000    -2.586000000
H     4.396000000    -5.287000000    -3.198000000
H     4.522000000    -6.255000000    -2.042000000
O     3.890000000    -1.291000000     2.130000000
H     3.567000000    -1.907000000     1.473000000
H     4.256000000    -1.846000000     2.819000000
O    -1.444000000     4.613000000     3.129000000
H    -2.294000000     4.366000000     3.494000000
H    -0.856000000     3.905000000     3.392000000
O     1.512000000    -3.992000000    -2.610000000
H     1.250000000    -3.320000000    -3.240000000
H     1.913000000    -3.503000000    -1.891000000
O    -3.027000000    -3.385000000     2.451000000
H    -3.094000000    -4.188000000     2.966000000
H    -2.100000000    -3.325000000     2.220000000
O     4.368000000    -6.871000000     1.123000000
H     3.992000000    -6.597000000     0.287000000
H     4.093000000    -6.195000000     1.743000000
O     3.086000000     5.007000000     4.433000000
H     2.527000000     4.818000000     5.187000000
H     2.792000000     4.394000000     3.758000000
O     0.170000000     2.360000000     3.563000000
H     0.487000000     2.384000000     4.465000000
H     0.139000000     1.428000000     3.344000000
O     4.066000000     0.647000000     4.651000000
H     3.789000000    -0.214000000     4.335000000
H     4.231000000     1.152000000     3.855000000
O     0.430000000    -5.677000000     3.777000000
H     1.169000000    -6.285000000     3.798000000
H    -0.340000000    -6.231000000     3.909000000
